
     RDKit          3D

 41 43  0  0  0  0  0  0  0  0999 V2000
   17.0850   63.2570   18.2180 C   0  0  0  0  0  0  0  0  0  0  0  0
   15.9450   63.5650   17.3030 C   0  0  0  0  0  0  0  0  0  0  0  0
   14.8030   63.7810   17.7920 O   0  0  0  0  0  0  0  0  0  0  0  0
   16.1780   63.7050   15.8930 N   0  0  0  0  0  0  0  0  0  0  0  0
   15.1330   63.8250   14.9110 C   0  0  0  0  0  0  0  0  0  0  0  0
   14.9880   64.9840   14.1350 C   0  0  0  0  0  0  0  0  0  0  0  0
   13.9450   65.0920   13.2140 C   0  0  0  0  0  0  0  0  0  0  0  0
   13.0260   64.0430   13.0500 C   0  0  0  0  0  0  0  0  0  0  0  0
   11.9090   64.1870   12.0520 C   0  0  0  0  0  0  0  0  0  0  0  0
   13.1510   62.8790   13.8400 C   0  0  0  0  0  0  0  0  0  0  0  0
   12.1880   61.8150   13.7340 N   0  0  0  0  0  0  0  0  0  0  0  0
   12.3960   60.6290   12.9550 C   0  0  0  0  0  0  0  0  0  0  0  0
   11.6470   60.3830   11.8470 N   0  0  0  0  0  0  0  0  0  0  0  0
   11.8210   59.2490   11.1230 C   0  0  0  0  0  0  0  0  0  0  0  0
   12.7750   58.3120   11.5140 C   0  0  0  0  0  0  0  0  0  0  0  0
   13.5440   58.5690   12.6600 C   0  0  0  0  0  0  0  0  0  0  0  0
   14.5730   57.6120   13.1450 C   0  0  0  0  0  0  0  0  0  0  0  0
   14.5630   57.1180   14.4620 C   0  0  0  0  0  0  0  0  0  0  0  0
   15.5400   56.2140   14.8820 C   0  0  0  0  0  0  0  0  0  0  0  0
   16.5230   55.8020   13.9820 C   0  0  0  0  0  0  0  0  0  0  0  0
   16.5200   56.2760   12.7080 N   0  0  0  0  0  0  0  0  0  0  0  0
   15.5790   57.1560   12.2740 C   0  0  0  0  0  0  0  0  0  0  0  0
   13.3230   59.7200   13.3550 N   0  0  0  0  0  0  0  0  0  0  0  0
   14.1960   62.7910   14.7770 C   0  0  0  0  0  0  0  0  0  0  0  0
   16.7516   63.3471   19.2624 H   0  0  0  0  0  0  0  0  0  0  0  0
   17.4372   62.2315   18.0327 H   0  0  0  0  0  0  0  0  0  0  0  0
   17.9057   63.9656   18.0327 H   0  0  0  0  0  0  0  0  0  0  0  0
   17.1680   63.8100   15.5750 H   0  0  0  0  0  0  0  0  0  0  0  0
   15.7009   65.8134   14.2530 H   0  0  0  0  0  0  0  0  0  0  0  0
   13.8420   66.0065   12.6115 H   0  0  0  0  0  0  0  0  0  0  0  0
   10.9547   64.3100   12.5850 H   0  0  0  0  0  0  0  0  0  0  0  0
   12.0927   65.0689   11.4207 H   0  0  0  0  0  0  0  0  0  0  0  0
   11.8631   63.2873   11.4207 H   0  0  0  0  0  0  0  0  0  0  0  0
   11.2610   61.9290   14.2030 H   0  0  0  0  0  0  0  0  0  0  0  0
   11.2087   59.0693   10.2270 H   0  0  0  0  0  0  0  0  0  0  0  0
   12.9229   57.3881   10.9356 H   0  0  0  0  0  0  0  0  0  0  0  0
   13.7819   57.4455   15.1639 H   0  0  0  0  0  0  0  0  0  0  0  0
   15.5349   55.8301   15.9128 H   0  0  0  0  0  0  0  0  0  0  0  0
   17.3006   55.0935   14.3033 H   0  0  0  0  0  0  0  0  0  0  0  0
   15.6045   57.5140   11.2342 H   0  0  0  0  0  0  0  0  0  0  0  0
   14.2793   61.8980   15.4139 H   0  0  0  0  0  0  0  0  0  0  0  0
  1  2  1  0
  2  3  2  0
  2  4  1  0
  4  5  1  0
  5  6  2  0
  6  7  1  0
  7  8  2  0
  8  9  1  0
  8 10  1  0
 10 11  1  0
 11 12  1  0
 12 13  2  0
 13 14  1  0
 14 15  2  0
 15 16  1  0
 16 17  1  0
 17 18  2  0
 18 19  1  0
 19 20  2  0
 20 21  1  0
 21 22  2  0
 16 23  2  0
 10 24  2  0
 24  5  1  0
 23 12  1  0
 22 17  1  0
  1 25  1  0
  1 26  1  0
  1 27  1  0
  4 28  1  0
  6 29  1  0
  7 30  1  0
  9 31  1  0
  9 32  1  0
  9 33  1  0
 11 34  1  0
 14 35  1  0
 15 36  1  0
 18 37  1  0
 19 38  1  0
 20 39  1  0
 22 40  1  0
 24 41  1  0
M  END
>  <meeko>  (1) 
{"is_sidechain": [false], "free_energy": -8.377, "intermolecular_energy": -10.336, "internal_energy": -0.624}

$$$$

     RDKit          3D

 41 43  0  0  0  0  0  0  0  0999 V2000
   12.3750   49.8110   19.4170 C   0  0  0  0  0  0  0  0  0  0  0  0
   13.6020   48.9800   19.2270 C   0  0  0  0  0  0  0  0  0  0  0  0
   13.5520   47.7430   19.4650 O   0  0  0  0  0  0  0  0  0  0  0  0
   14.7930   49.5770   18.6910 N   0  0  0  0  0  0  0  0  0  0  0  0
   16.0700   48.9170   18.6340 C   0  0  0  0  0  0  0  0  0  0  0  0
   16.4830   48.2210   17.4880 C   0  0  0  0  0  0  0  0  0  0  0  0
   17.7110   47.5580   17.4690 C   0  0  0  0  0  0  0  0  0  0  0  0
   18.5510   47.5780   18.5940 C   0  0  0  0  0  0  0  0  0  0  0  0
   19.8690   46.8520   18.5470 C   0  0  0  0  0  0  0  0  0  0  0  0
   18.1360   48.2590   19.7600 C   0  0  0  0  0  0  0  0  0  0  0  0
   18.9520   48.2440   20.9450 N   0  0  0  0  0  0  0  0  0  0  0  0
   20.0570   49.1320   21.1610 C   0  0  0  0  0  0  0  0  0  0  0  0
   20.4620   49.4460   22.4210 N   0  0  0  0  0  0  0  0  0  0  0  0
   21.4890   50.3070   22.6320 C   0  0  0  0  0  0  0  0  0  0  0  0
   22.1430   50.8890   21.5480 C   0  0  0  0  0  0  0  0  0  0  0  0
   21.7210   50.5640   20.2490 C   0  0  0  0  0  0  0  0  0  0  0  0
   22.3620   51.1530   19.0450 C   0  0  0  0  0  0  0  0  0  0  0  0
   23.2280   50.4060   18.2260 C   0  0  0  0  0  0  0  0  0  0  0  0
   23.8060   50.9880   17.0970 C   0  0  0  0  0  0  0  0  0  0  0  0
   23.5140   52.3160   16.7870 C   0  0  0  0  0  0  0  0  0  0  0  0
   22.6680   53.0290   17.5770 N   0  0  0  0  0  0  0  0  0  0  0  0
   22.0910   52.4850   18.6810 C   0  0  0  0  0  0  0  0  0  0  0  0
   20.6790   49.7000   20.0950 N   0  0  0  0  0  0  0  0  0  0  0  0
   16.8890   48.9080   19.7710 C   0  0  0  0  0  0  0  0  0  0  0  0
   12.1831   49.9410   20.4923 H   0  0  0  0  0  0  0  0  0  0  0  0
   12.5229   50.7956   18.9493 H   0  0  0  0  0  0  0  0  0  0  0  0
   11.5156   49.3083   18.9493 H   0  0  0  0  0  0  0  0  0  0  0  0
   14.7020   50.5150   18.2400 H   0  0  0  0  0  0  0  0  0  0  0  0
   15.8352   48.1977   16.5993 H   0  0  0  0  0  0  0  0  0  0  0  0
   18.0235   47.0151   16.5648 H   0  0  0  0  0  0  0  0  0  0  0  0
   20.2184   46.6596   19.5721 H   0  0  0  0  0  0  0  0  0  0  0  0
   19.7425   45.8963   18.0173 H   0  0  0  0  0  0  0  0  0  0  0  0
   20.6092   47.4697   18.0173 H   0  0  0  0  0  0  0  0  0  0  0  0
   18.7690   47.5140   21.6700 H   0  0  0  0  0  0  0  0  0  0  0  0
   21.8052   50.5455   23.6582 H   0  0  0  0  0  0  0  0  0  0  0  0
   22.9751   51.5906   21.7072 H   0  0  0  0  0  0  0  0  0  0  0  0
   23.4506   49.3583   18.4766 H   0  0  0  0  0  0  0  0  0  0  0  0
   24.4853   50.4050   16.4578 H   0  0  0  0  0  0  0  0  0  0  0  0
   23.9685   52.7868   15.9028 H   0  0  0  0  0  0  0  0  0  0  0  0
   21.4073   53.0904   19.2943 H   0  0  0  0  0  0  0  0  0  0  0  0
   16.5511   49.4165   20.6860 H   0  0  0  0  0  0  0  0  0  0  0  0
  1  2  1  0
  2  3  2  0
  2  4  1  0
  4  5  1  0
  5  6  2  0
  6  7  1  0
  7  8  2  0
  8  9  1  0
  8 10  1  0
 10 11  1  0
 11 12  1  0
 12 13  2  0
 13 14  1  0
 14 15  2  0
 15 16  1  0
 16 17  1  0
 17 18  2  0
 18 19  1  0
 19 20  2  0
 20 21  1  0
 21 22  2  0
 16 23  2  0
 10 24  2  0
 24  5  1  0
 23 12  1  0
 22 17  1  0
  1 25  1  0
  1 26  1  0
  1 27  1  0
  4 28  1  0
  6 29  1  0
  7 30  1  0
  9 31  1  0
  9 32  1  0
  9 33  1  0
 11 34  1  0
 14 35  1  0
 15 36  1  0
 18 37  1  0
 19 38  1  0
 20 39  1  0
 22 40  1  0
 24 41  1  0
M  END
>  <meeko>  (2) 
{"is_sidechain": [false], "free_energy": -8.096, "intermolecular_energy": -10.111, "internal_energy": -0.502}

$$$$

     RDKit          3D

 41 43  0  0  0  0  0  0  0  0999 V2000
    9.9970   67.1760   10.3820 C   0  0  0  0  0  0  0  0  0  0  0  0
   10.5270   66.1830   11.3640 C   0  0  0  0  0  0  0  0  0  0  0  0
    9.8660   65.1350   11.6000 O   0  0  0  0  0  0  0  0  0  0  0  0
   11.8200   66.3840   11.9560 N   0  0  0  0  0  0  0  0  0  0  0  0
   12.3440   65.5900   13.0350 C   0  0  0  0  0  0  0  0  0  0  0  0
   12.2490   66.0140   14.3690 C   0  0  0  0  0  0  0  0  0  0  0  0
   12.7970   65.2450   15.3960 C   0  0  0  0  0  0  0  0  0  0  0  0
   13.4510   64.0350   15.1110 C   0  0  0  0  0  0  0  0  0  0  0  0
   14.0340   63.2260   16.2380 C   0  0  0  0  0  0  0  0  0  0  0  0
   13.5690   63.6070   13.7700 C   0  0  0  0  0  0  0  0  0  0  0  0
   14.2850   62.4020   13.4470 N   0  0  0  0  0  0  0  0  0  0  0  0
   13.6690   61.2410   12.8740 C   0  0  0  0  0  0  0  0  0  0  0  0
   12.4800   61.3350   12.2200 N   0  0  0  0  0  0  0  0  0  0  0  0
   11.8790   60.2350   11.7000 C   0  0  0  0  0  0  0  0  0  0  0  0
   12.4770   58.9830   11.8370 C   0  0  0  0  0  0  0  0  0  0  0  0
   13.7020   58.8910   12.5160 C   0  0  0  0  0  0  0  0  0  0  0  0
   14.3940   57.5900   12.7120 C   0  0  0  0  0  0  0  0  0  0  0  0
   15.7230   57.5190   13.1690 C   0  0  0  0  0  0  0  0  0  0  0  0
   16.3390   56.2800   13.3490 C   0  0  0  0  0  0  0  0  0  0  0  0
   15.6240   55.1140   13.0770 C   0  0  0  0  0  0  0  0  0  0  0  0
   14.3370   55.1900   12.6460 N   0  0  0  0  0  0  0  0  0  0  0  0
   13.7140   56.3840   12.4620 C   0  0  0  0  0  0  0  0  0  0  0  0
   14.2580   60.0260   13.0250 N   0  0  0  0  0  0  0  0  0  0  0  0
   13.0270   64.4010   12.7440 C   0  0  0  0  0  0  0  0  0  0  0  0
    9.5459   68.0212   10.9224 H   0  0  0  0  0  0  0  0  0  0  0  0
   10.8198   67.5419    9.7502 H   0  0  0  0  0  0  0  0  0  0  0  0
    9.2351   66.6961    9.7502 H   0  0  0  0  0  0  0  0  0  0  0  0
   12.4470   67.0950   11.5170 H   0  0  0  0  0  0  0  0  0  0  0  0
   11.7390   66.9592   14.6068 H   0  0  0  0  0  0  0  0  0  0  0  0
   12.7162   65.5891   16.4377 H   0  0  0  0  0  0  0  0  0  0  0  0
   13.7220   63.6590   17.1998 H   0  0  0  0  0  0  0  0  0  0  0  0
   13.6744   62.1887   16.1690 H   0  0  0  0  0  0  0  0  0  0  0  0
   15.1318   63.2389   16.1690 H   0  0  0  0  0  0  0  0  0  0  0  0
   15.3000   62.3420   13.6890 H   0  0  0  0  0  0  0  0  0  0  0  0
   10.9198   60.3312   11.1703 H   0  0  0  0  0  0  0  0  0  0  0  0
   11.9979   58.0845   11.4209 H   0  0  0  0  0  0  0  0  0  0  0  0
   16.2783   58.4436   13.3851 H   0  0  0  0  0  0  0  0  0  0  0  0
   17.3792   56.2235   13.7023 H   0  0  0  0  0  0  0  0  0  0  0  0
   16.1017   54.1323   13.2113 H   0  0  0  0  0  0  0  0  0  0  0  0
   12.6704   56.4075   12.1151 H   0  0  0  0  0  0  0  0  0  0  0  0
   13.1407   64.0842   11.6967 H   0  0  0  0  0  0  0  0  0  0  0  0
  1  2  1  0
  2  3  2  0
  2  4  1  0
  4  5  1  0
  5  6  2  0
  6  7  1  0
  7  8  2  0
  8  9  1  0
  8 10  1  0
 10 11  1  0
 11 12  1  0
 12 13  2  0
 13 14  1  0
 14 15  2  0
 15 16  1  0
 16 17  1  0
 17 18  2  0
 18 19  1  0
 19 20  2  0
 20 21  1  0
 21 22  2  0
 16 23  2  0
 10 24  2  0
 24  5  1  0
 23 12  1  0
 22 17  1  0
  1 25  1  0
  1 26  1  0
  1 27  1  0
  4 28  1  0
  6 29  1  0
  7 30  1  0
  9 31  1  0
  9 32  1  0
  9 33  1  0
 11 34  1  0
 14 35  1  0
 15 36  1  0
 18 37  1  0
 19 38  1  0
 20 39  1  0
 22 40  1  0
 24 41  1  0
M  END
>  <meeko>  (3) 
{"is_sidechain": [false], "free_energy": -7.915, "intermolecular_energy": -9.986, "internal_energy": -0.405}

$$$$

     RDKit          3D

 41 43  0  0  0  0  0  0  0  0999 V2000
   14.8850   49.0880   17.1400 C   0  0  0  0  0  0  0  0  0  0  0  0
   16.3000   49.0460   17.6180 C   0  0  0  0  0  0  0  0  0  0  0  0
   17.1630   49.7750   17.0570 O   0  0  0  0  0  0  0  0  0  0  0  0
   16.6440   48.2520   18.7640 N   0  0  0  0  0  0  0  0  0  0  0  0
   17.9940   48.0030   19.1960 C   0  0  0  0  0  0  0  0  0  0  0  0
   18.8410   47.1370   18.4890 C   0  0  0  0  0  0  0  0  0  0  0  0
   20.1350   46.8830   18.9480 C   0  0  0  0  0  0  0  0  0  0  0  0
   20.6080   47.4900   20.1220 C   0  0  0  0  0  0  0  0  0  0  0  0
   22.0060   47.1960   20.5950 C   0  0  0  0  0  0  0  0  0  0  0  0
   19.7570   48.3490   20.8530 C   0  0  0  0  0  0  0  0  0  0  0  0
   20.1970   48.9350   22.0900 N   0  0  0  0  0  0  0  0  0  0  0  0
   20.7020   50.2730   22.2000 C   0  0  0  0  0  0  0  0  0  0  0  0
   21.1740   50.9310   21.1070 N   0  0  0  0  0  0  0  0  0  0  0  0
   21.6780   52.1860   21.2100 C   0  0  0  0  0  0  0  0  0  0  0  0
   21.7250   52.8190   22.4510 C   0  0  0  0  0  0  0  0  0  0  0  0
   21.2400   52.1350   23.5760 C   0  0  0  0  0  0  0  0  0  0  0  0
   21.2660   52.7400   24.9340 C   0  0  0  0  0  0  0  0  0  0  0  0
   21.1480   51.9570   26.0970 C   0  0  0  0  0  0  0  0  0  0  0  0
   21.1850   52.5580   27.3560 C   0  0  0  0  0  0  0  0  0  0  0  0
   21.3460   53.9400   27.4500 C   0  0  0  0  0  0  0  0  0  0  0  0
   21.4700   54.6890   26.3230 N   0  0  0  0  0  0  0  0  0  0  0  0
   21.4370   54.1280   25.0840 C   0  0  0  0  0  0  0  0  0  0  0  0
   20.7510   50.8730   23.4180 N   0  0  0  0  0  0  0  0  0  0  0  0
   18.4500   48.5820   20.3880 C   0  0  0  0  0  0  0  0  0  0  0  0
   14.2061   49.1082   18.0053 H   0  0  0  0  0  0  0  0  0  0  0  0
   14.7302   49.9911   16.5314 H   0  0  0  0  0  0  0  0  0  0  0  0
   14.6769   48.1956   16.5314 H   0  0  0  0  0  0  0  0  0  0  0  0
   15.8630   47.9070   19.3650 H   0  0  0  0  0  0  0  0  0  0  0  0
   18.4836   46.6549   17.5671 H   0  0  0  0  0  0  0  0  0  0  0  0
   20.7894   46.2014   18.3848 H   0  0  0  0  0  0  0  0  0  0  0  0
   22.0276   47.1915   21.6948 H   0  0  0  0  0  0  0  0  0  0  0  0
   22.3213   46.2119   20.2180 H   0  0  0  0  0  0  0  0  0  0  0  0
   22.6910   47.9697   20.2180 H   0  0  0  0  0  0  0  0  0  0  0  0
   20.2030   48.3440   22.9520 H   0  0  0  0  0  0  0  0  0  0  0  0
   22.0498   52.7045   20.3139 H   0  0  0  0  0  0  0  0  0  0  0  0
   22.1345   53.8354   22.5465 H   0  0  0  0  0  0  0  0  0  0  0  0
   21.0261   50.8670   26.0136 H   0  0  0  0  0  0  0  0  0  0  0  0
   21.0881   51.9473   28.2657 H   0  0  0  0  0  0  0  0  0  0  0  0
   21.3726   54.4242   28.4373 H   0  0  0  0  0  0  0  0  0  0  0  0
   21.5448   54.7644   24.1933 H   0  0  0  0  0  0  0  0  0  0  0  0
   17.7756   49.2285   20.9688 H   0  0  0  0  0  0  0  0  0  0  0  0
  1  2  1  0
  2  3  2  0
  2  4  1  0
  4  5  1  0
  5  6  2  0
  6  7  1  0
  7  8  2  0
  8  9  1  0
  8 10  1  0
 10 11  1  0
 11 12  1  0
 12 13  2  0
 13 14  1  0
 14 15  2  0
 15 16  1  0
 16 17  1  0
 17 18  2  0
 18 19  1  0
 19 20  2  0
 20 21  1  0
 21 22  2  0
 16 23  2  0
 10 24  2  0
 24  5  1  0
 23 12  1  0
 22 17  1  0
  1 25  1  0
  1 26  1  0
  1 27  1  0
  4 28  1  0
  6 29  1  0
  7 30  1  0
  9 31  1  0
  9 32  1  0
  9 33  1  0
 11 34  1  0
 14 35  1  0
 15 36  1  0
 18 37  1  0
 19 38  1  0
 20 39  1  0
 22 40  1  0
 24 41  1  0
M  END
>  <meeko>  (4) 
{"is_sidechain": [false], "free_energy": -7.899, "intermolecular_energy": -9.692, "internal_energy": -0.679}

$$$$

     RDKit          3D

 41 43  0  0  0  0  0  0  0  0999 V2000
   16.8900   53.8710   13.8710 C   0  0  0  0  0  0  0  0  0  0  0  0
   16.1970   52.7320   14.5450 C   0  0  0  0  0  0  0  0  0  0  0  0
   15.0800   52.3440   14.1060 O   0  0  0  0  0  0  0  0  0  0  0  0
   16.8470   52.0340   15.6180 N   0  0  0  0  0  0  0  0  0  0  0  0
   16.2030   51.0470   16.4450 C   0  0  0  0  0  0  0  0  0  0  0  0
   14.8130   51.0450   16.6340 C   0  0  0  0  0  0  0  0  0  0  0  0
   14.2150   50.1000   17.4690 C   0  0  0  0  0  0  0  0  0  0  0  0
   14.9950   49.1370   18.1310 C   0  0  0  0  0  0  0  0  0  0  0  0
   14.3240   48.1310   19.0270 C   0  0  0  0  0  0  0  0  0  0  0  0
   16.3970   49.1420   17.9620 C   0  0  0  0  0  0  0  0  0  0  0  0
   17.2230   48.2040   18.6760 N   0  0  0  0  0  0  0  0  0  0  0  0
   18.3570   48.5850   19.4670 C   0  0  0  0  0  0  0  0  0  0  0  0
   18.4740   48.1740   20.7580 N   0  0  0  0  0  0  0  0  0  0  0  0
   19.5310   48.5540   21.5190 C   0  0  0  0  0  0  0  0  0  0  0  0
   20.5150   49.3840   20.9820 C   0  0  0  0  0  0  0  0  0  0  0  0
   20.3870   49.8080   19.6500 C   0  0  0  0  0  0  0  0  0  0  0  0
   21.3890   50.7010   19.0120 C   0  0  0  0  0  0  0  0  0  0  0  0
   22.6020   50.2080   18.4980 C   0  0  0  0  0  0  0  0  0  0  0  0
   23.5160   51.0740   17.8980 C   0  0  0  0  0  0  0  0  0  0  0  0
   23.2140   52.4330   17.8080 C   0  0  0  0  0  0  0  0  0  0  0  0
   22.0350   52.9010   18.2980 N   0  0  0  0  0  0  0  0  0  0  0  0
   21.1280   52.0780   18.8860 C   0  0  0  0  0  0  0  0  0  0  0  0
   19.3020   49.4030   18.9330 N   0  0  0  0  0  0  0  0  0  0  0  0
   16.9880   50.1110   17.1320 C   0  0  0  0  0  0  0  0  0  0  0  0
   17.3033   54.5503   14.6311 H   0  0  0  0  0  0  0  0  0  0  0  0
   17.7058   53.4839   13.2428 H   0  0  0  0  0  0  0  0  0  0  0  0
   16.1712   54.4175   13.2428 H   0  0  0  0  0  0  0  0  0  0  0  0
   17.8710   52.1940   15.7490 H   0  0  0  0  0  0  0  0  0  0  0  0
   14.1905   51.7928   16.1209 H   0  0  0  0  0  0  0  0  0  0  0  0
   13.1241   50.1092   17.6100 H   0  0  0  0  0  0  0  0  0  0  0  0
   14.5031   48.3996   20.0786 H   0  0  0  0  0  0  0  0  0  0  0  0
   13.2420   48.1275   18.8287 H   0  0  0  0  0  0  0  0  0  0  0  0
   14.7364   47.1307   18.8287 H   0  0  0  0  0  0  0  0  0  0  0  0
   17.0250   47.1830   18.5740 H   0  0  0  0  0  0  0  0  0  0  0  0
   19.6120   48.2074   22.5598 H   0  0  0  0  0  0  0  0  0  0  0  0
   21.3749   49.7003   21.5907 H   0  0  0  0  0  0  0  0  0  0  0  0
   22.8308   49.1344   18.5696 H   0  0  0  0  0  0  0  0  0  0  0  0
   24.4662   50.6890   17.4994 H   0  0  0  0  0  0  0  0  0  0  0  0
   23.9294   53.1258   17.3408 H   0  0  0  0  0  0  0  0  0  0  0  0
   20.1823   52.4913   19.2665 H   0  0  0  0  0  0  0  0  0  0  0  0
   18.0821   50.1348   17.0203 H   0  0  0  0  0  0  0  0  0  0  0  0
  1  2  1  0
  2  3  2  0
  2  4  1  0
  4  5  1  0
  5  6  2  0
  6  7  1  0
  7  8  2  0
  8  9  1  0
  8 10  1  0
 10 11  1  0
 11 12  1  0
 12 13  2  0
 13 14  1  0
 14 15  2  0
 15 16  1  0
 16 17  1  0
 17 18  2  0
 18 19  1  0
 19 20  2  0
 20 21  1  0
 21 22  2  0
 16 23  2  0
 10 24  2  0
 24  5  1  0
 23 12  1  0
 22 17  1  0
  1 25  1  0
  1 26  1  0
  1 27  1  0
  4 28  1  0
  6 29  1  0
  7 30  1  0
  9 31  1  0
  9 32  1  0
  9 33  1  0
 11 34  1  0
 14 35  1  0
 15 36  1  0
 18 37  1  0
 19 38  1  0
 20 39  1  0
 22 40  1  0
 24 41  1  0
M  END
>  <meeko>  (5) 
{"is_sidechain": [false], "free_energy": -7.809, "intermolecular_energy": -10.365, "internal_energy": 0.105}

$$$$

     RDKit          3D

 41 43  0  0  0  0  0  0  0  0999 V2000
   15.7460   62.3700   20.0560 C   0  0  0  0  0  0  0  0  0  0  0  0
   15.8720   63.0670   18.7410 C   0  0  0  0  0  0  0  0  0  0  0  0
   16.9910   63.5320   18.3940 O   0  0  0  0  0  0  0  0  0  0  0  0
   14.7480   63.1180   17.8490 N   0  0  0  0  0  0  0  0  0  0  0  0
   14.7070   63.9080   16.6470 C   0  0  0  0  0  0  0  0  0  0  0  0
   14.6770   65.3090   16.6930 C   0  0  0  0  0  0  0  0  0  0  0  0
   14.6020   66.0540   15.5150 C   0  0  0  0  0  0  0  0  0  0  0  0
   14.5560   65.4120   14.2670 C   0  0  0  0  0  0  0  0  0  0  0  0
   14.4720   66.2400   13.0130 C   0  0  0  0  0  0  0  0  0  0  0  0
   14.5660   64.0010   14.2090 C   0  0  0  0  0  0  0  0  0  0  0  0
   14.4590   63.3200   12.9470 N   0  0  0  0  0  0  0  0  0  0  0  0
   13.5950   62.1970   12.7200 C   0  0  0  0  0  0  0  0  0  0  0  0
   12.2580   62.3730   12.5420 N   0  0  0  0  0  0  0  0  0  0  0  0
   11.4320   61.3130   12.3550 C   0  0  0  0  0  0  0  0  0  0  0  0
   11.9500   60.0190   12.3480 C   0  0  0  0  0  0  0  0  0  0  0  0
   13.3300   59.8420   12.5350 C   0  0  0  0  0  0  0  0  0  0  0  0
   13.9530   58.4930   12.5510 C   0  0  0  0  0  0  0  0  0  0  0  0
   15.2850   58.2970   12.9600 C   0  0  0  0  0  0  0  0  0  0  0  0
   15.8350   57.0150   12.9710 C   0  0  0  0  0  0  0  0  0  0  0  0
   15.0520   55.9300   12.5770 C   0  0  0  0  0  0  0  0  0  0  0  0
   13.7630   56.1260   12.1940 N   0  0  0  0  0  0  0  0  0  0  0  0
   13.2020   57.3650   12.1750 C   0  0  0  0  0  0  0  0  0  0  0  0
   14.1130   60.9410   12.7260 N   0  0  0  0  0  0  0  0  0  0  0  0
   14.6240   63.2630   15.4050 C   0  0  0  0  0  0  0  0  0  0  0  0
   15.8775   63.0974   20.8706 H   0  0  0  0  0  0  0  0  0  0  0  0
   14.7500   61.9094   20.1329 H   0  0  0  0  0  0  0  0  0  0  0  0
   16.5177   61.5899   20.1329 H   0  0  0  0  0  0  0  0  0  0  0  0
   13.9470   62.4760   18.0440 H   0  0  0  0  0  0  0  0  0  0  0  0
   14.7128   65.8246   17.6640 H   0  0  0  0  0  0  0  0  0  0  0  0
   14.5787   67.1526   15.5647 H   0  0  0  0  0  0  0  0  0  0  0  0
   14.3643   67.3014   13.2810 H   0  0  0  0  0  0  0  0  0  0  0  0
   15.3887   66.1025   12.4208 H   0  0  0  0  0  0  0  0  0  0  0  0
   13.6016   65.9212   12.4208 H   0  0  0  0  0  0  0  0  0  0  0  0
   15.0810   63.6180   12.1620 H   0  0  0  0  0  0  0  0  0  0  0  0
   10.3538   61.4748   12.2090 H   0  0  0  0  0  0  0  0  0  0  0  0
   11.2894   59.1522   12.1987 H   0  0  0  0  0  0  0  0  0  0  0  0
   15.8948   59.1577   13.2722 H   0  0  0  0  0  0  0  0  0  0  0  0
   16.8771   56.8611   13.2876 H   0  0  0  0  0  0  0  0  0  0  0  0
   15.4779   54.9158   12.5763 H   0  0  0  0  0  0  0  0  0  0  0  0
   12.1539   57.4855   11.8635 H   0  0  0  0  0  0  0  0  0  0  0  0
   14.6039   62.1639   15.3653 H   0  0  0  0  0  0  0  0  0  0  0  0
  1  2  1  0
  2  3  2  0
  2  4  1  0
  4  5  1  0
  5  6  2  0
  6  7  1  0
  7  8  2  0
  8  9  1  0
  8 10  1  0
 10 11  1  0
 11 12  1  0
 12 13  2  0
 13 14  1  0
 14 15  2  0
 15 16  1  0
 16 17  1  0
 17 18  2  0
 18 19  1  0
 19 20  2  0
 20 21  1  0
 21 22  2  0
 16 23  2  0
 10 24  2  0
 24  5  1  0
 23 12  1  0
 22 17  1  0
  1 25  1  0
  1 26  1  0
  1 27  1  0
  4 28  1  0
  6 29  1  0
  7 30  1  0
  9 31  1  0
  9 32  1  0
  9 33  1  0
 11 34  1  0
 14 35  1  0
 15 36  1  0
 18 37  1  0
 19 38  1  0
 20 39  1  0
 22 40  1  0
 24 41  1  0
M  END
>  <meeko>  (6) 
{"is_sidechain": [false], "free_energy": -7.691, "intermolecular_energy": -9.433, "internal_energy": -0.681}

$$$$

     RDKit          3D

 41 43  0  0  0  0  0  0  0  0999 V2000
   15.7650   55.9150   12.9880 C   0  0  0  0  0  0  0  0  0  0  0  0
   14.9490   57.1400   13.2450 C   0  0  0  0  0  0  0  0  0  0  0  0
   14.3390   57.2550   14.3420 O   0  0  0  0  0  0  0  0  0  0  0  0
   14.9430   58.2080   12.2860 N   0  0  0  0  0  0  0  0  0  0  0  0
   14.0620   59.3440   12.3500 C   0  0  0  0  0  0  0  0  0  0  0  0
   12.7840   59.3130   11.7730 C   0  0  0  0  0  0  0  0  0  0  0  0
   11.9610   60.4390   11.8170 C   0  0  0  0  0  0  0  0  0  0  0  0
   12.3990   61.6200   12.4380 C   0  0  0  0  0  0  0  0  0  0  0  0
   11.4920   62.8200   12.4680 C   0  0  0  0  0  0  0  0  0  0  0  0
   13.6920   61.6690   13.0050 C   0  0  0  0  0  0  0  0  0  0  0  0
   14.1860   62.8850   13.5940 N   0  0  0  0  0  0  0  0  0  0  0  0
   15.2580   62.9280   14.5460 C   0  0  0  0  0  0  0  0  0  0  0  0
   16.5200   62.5680   14.1900 N   0  0  0  0  0  0  0  0  0  0  0  0
   17.5320   62.5810   15.0940 C   0  0  0  0  0  0  0  0  0  0  0  0
   17.2850   62.9610   16.4120 C   0  0  0  0  0  0  0  0  0  0  0  0
   15.9800   63.3280   16.7750 C   0  0  0  0  0  0  0  0  0  0  0  0
   15.6370   63.7340   18.1630 C   0  0  0  0  0  0  0  0  0  0  0  0
   15.5090   62.7930   19.2010 C   0  0  0  0  0  0  0  0  0  0  0  0
   15.1940   63.2100   20.4950 C   0  0  0  0  0  0  0  0  0  0  0  0
   15.0130   64.5700   20.7500 C   0  0  0  0  0  0  0  0  0  0  0  0
   15.1490   65.4740   19.7450 N   0  0  0  0  0  0  0  0  0  0  0  0
   15.4550   65.0940   18.4760 C   0  0  0  0  0  0  0  0  0  0  0  0
   15.0000   63.2910   15.8300 N   0  0  0  0  0  0  0  0  0  0  0  0
   14.5170   60.5330   12.9380 C   0  0  0  0  0  0  0  0  0  0  0  0
   16.0641   55.4659   13.9466 H   0  0  0  0  0  0  0  0  0  0  0  0
   15.1683   55.1907   12.4141 H   0  0  0  0  0  0  0  0  0  0  0  0
   16.6633   56.1865   12.4141 H   0  0  0  0  0  0  0  0  0  0  0  0
   15.6810   58.1980   11.5460 H   0  0  0  0  0  0  0  0  0  0  0  0
   12.4281   58.3950   11.2825 H   0  0  0  0  0  0  0  0  0  0  0  0
   10.9605   60.4013   11.3613 H   0  0  0  0  0  0  0  0  0  0  0  0
   11.2834   63.0960   13.5122 H   0  0  0  0  0  0  0  0  0  0  0  0
   11.9812   63.6623   11.9569 H   0  0  0  0  0  0  0  0  0  0  0  0
   10.5482   62.5791   11.9569 H   0  0  0  0  0  0  0  0  0  0  0  0
   13.7090   63.7850   13.3620 H   0  0  0  0  0  0  0  0  0  0  0  0
   18.5477   62.2915   14.7864 H   0  0  0  0  0  0  0  0  0  0  0  0
   18.0974   62.9730   17.1535 H   0  0  0  0  0  0  0  0  0  0  0  0
   15.6579   61.7234   18.9916 H   0  0  0  0  0  0  0  0  0  0  0  0
   15.0894   62.4740   21.3058 H   0  0  0  0  0  0  0  0  0  0  0  0
   14.7601   64.9102   21.7650 H   0  0  0  0  0  0  0  0  0  0  0  0
   15.5611   65.8547   17.6885 H   0  0  0  0  0  0  0  0  0  0  0  0
   15.5348   60.5773   13.3530 H   0  0  0  0  0  0  0  0  0  0  0  0
  1  2  1  0
  2  3  2  0
  2  4  1  0
  4  5  1  0
  5  6  2  0
  6  7  1  0
  7  8  2  0
  8  9  1  0
  8 10  1  0
 10 11  1  0
 11 12  1  0
 12 13  2  0
 13 14  1  0
 14 15  2  0
 15 16  1  0
 16 17  1  0
 17 18  2  0
 18 19  1  0
 19 20  2  0
 20 21  1  0
 21 22  2  0
 16 23  2  0
 10 24  2  0
 24  5  1  0
 23 12  1  0
 22 17  1  0
  1 25  1  0
  1 26  1  0
  1 27  1  0
  4 28  1  0
  6 29  1  0
  7 30  1  0
  9 31  1  0
  9 32  1  0
  9 33  1  0
 11 34  1  0
 14 35  1  0
 15 36  1  0
 18 37  1  0
 19 38  1  0
 20 39  1  0
 22 40  1  0
 24 41  1  0
M  END
>  <meeko>  (7) 
{"is_sidechain": [false], "free_energy": -7.579, "intermolecular_energy": -9.554, "internal_energy": -0.422}

$$$$

     RDKit          3D

 41 43  0  0  0  0  0  0  0  0999 V2000
   19.7180   42.3280   25.3000 C   0  0  0  0  0  0  0  0  0  0  0  0
   19.2870   43.3490   24.2990 C   0  0  0  0  0  0  0  0  0  0  0  0
   18.1060   43.3210   23.8590 O   0  0  0  0  0  0  0  0  0  0  0  0
   20.1870   44.4020   23.9200 N   0  0  0  0  0  0  0  0  0  0  0  0
   19.9400   45.3250   22.8440 C   0  0  0  0  0  0  0  0  0  0  0  0
   19.9340   44.9050   21.5060 C   0  0  0  0  0  0  0  0  0  0  0  0
   19.7280   45.8250   20.4770 C   0  0  0  0  0  0  0  0  0  0  0  0
   19.5220   47.1840   20.7640 C   0  0  0  0  0  0  0  0  0  0  0  0
   19.3050   48.1540   19.6350 C   0  0  0  0  0  0  0  0  0  0  0  0
   19.5450   47.6220   22.1070 C   0  0  0  0  0  0  0  0  0  0  0  0
   19.3970   49.0170   22.4240 N   0  0  0  0  0  0  0  0  0  0  0  0
   20.5020   49.9060   22.6370 C   0  0  0  0  0  0  0  0  0  0  0  0
   21.5880   49.8740   21.8180 N   0  0  0  0  0  0  0  0  0  0  0  0
   22.6480   50.6940   22.0310 C   0  0  0  0  0  0  0  0  0  0  0  0
   22.6390   51.5810   23.1060 C   0  0  0  0  0  0  0  0  0  0  0  0
   21.5170   51.6070   23.9500 C   0  0  0  0  0  0  0  0  0  0  0  0
   21.4390   52.5180   25.1220 C   0  0  0  0  0  0  0  0  0  0  0  0
   21.2490   52.0310   26.4280 C   0  0  0  0  0  0  0  0  0  0  0  0
   21.1890   52.9140   27.5060 C   0  0  0  0  0  0  0  0  0  0  0  0
   21.3230   54.2840   27.2780 C   0  0  0  0  0  0  0  0  0  0  0  0
   21.5170   54.7460   26.0140 N   0  0  0  0  0  0  0  0  0  0  0  0
   21.5800   53.9070   24.9470 C   0  0  0  0  0  0  0  0  0  0  0  0
   20.4830   50.7580   23.6950 N   0  0  0  0  0  0  0  0  0  0  0  0
   19.7710   46.6870   23.1330 C   0  0  0  0  0  0  0  0  0  0  0  0
   19.5535   42.7177   26.3154 H   0  0  0  0  0  0  0  0  0  0  0  0
   19.1316   41.4078   25.1610 H   0  0  0  0  0  0  0  0  0  0  0  0
   20.7864   42.1064   25.1610 H   0  0  0  0  0  0  0  0  0  0  0  0
   21.0290   44.5570   24.5180 H   0  0  0  0  0  0  0  0  0  0  0  0
   20.0927   43.8433   21.2659 H   0  0  0  0  0  0  0  0  0  0  0  0
   19.7270   45.4824   19.4317 H   0  0  0  0  0  0  0  0  0  0  0  0
   19.0822   49.1501   20.0451 H   0  0  0  0  0  0  0  0  0  0  0  0
   20.2136   48.2067   19.0171 H   0  0  0  0  0  0  0  0  0  0  0  0
   18.4606   47.8146   19.0171 H   0  0  0  0  0  0  0  0  0  0  0  0
   18.4340   49.4010   22.5620 H   0  0  0  0  0  0  0  0  0  0  0  0
   23.5149   50.6586   21.3548 H   0  0  0  0  0  0  0  0  0  0  0  0
   23.4943   52.2478   23.2898 H   0  0  0  0  0  0  0  0  0  0  0  0
   21.1473   50.9493   26.5998 H   0  0  0  0  0  0  0  0  0  0  0  0
   21.0374   52.5337   28.5270 H   0  0  0  0  0  0  0  0  0  0  0  0
   21.2717   54.9898   28.1202 H   0  0  0  0  0  0  0  0  0  0  0  0
   21.7424   54.3167   23.9391 H   0  0  0  0  0  0  0  0  0  0  0  0
   19.8159   47.0289   24.1775 H   0  0  0  0  0  0  0  0  0  0  0  0
  1  2  1  0
  2  3  2  0
  2  4  1  0
  4  5  1  0
  5  6  2  0
  6  7  1  0
  7  8  2  0
  8  9  1  0
  8 10  1  0
 10 11  1  0
 11 12  1  0
 12 13  2  0
 13 14  1  0
 14 15  2  0
 15 16  1  0
 16 17  1  0
 17 18  2  0
 18 19  1  0
 19 20  2  0
 20 21  1  0
 21 22  2  0
 16 23  2  0
 10 24  2  0
 24  5  1  0
 23 12  1  0
 22 17  1  0
  1 25  1  0
  1 26  1  0
  1 27  1  0
  4 28  1  0
  6 29  1  0
  7 30  1  0
  9 31  1  0
  9 32  1  0
  9 33  1  0
 11 34  1  0
 14 35  1  0
 15 36  1  0
 18 37  1  0
 19 38  1  0
 20 39  1  0
 22 40  1  0
 24 41  1  0
M  END
>  <meeko>  (8) 
{"is_sidechain": [false], "free_energy": -7.565, "intermolecular_energy": -9.361, "internal_energy": -0.598}

$$$$

     RDKit          3D

 41 43  0  0  0  0  0  0  0  0999 V2000
   21.7530   54.1230   25.2300 C   0  0  0  0  0  0  0  0  0  0  0  0
   22.2460   53.7310   23.8760 C   0  0  0  0  0  0  0  0  0  0  0  0
   22.6690   54.6230   23.0920 O   0  0  0  0  0  0  0  0  0  0  0  0
   22.3220   52.3430   23.5170 N   0  0  0  0  0  0  0  0  0  0  0  0
   22.6120   51.8670   22.1900 C   0  0  0  0  0  0  0  0  0  0  0  0
   23.9310   51.7470   21.7280 C   0  0  0  0  0  0  0  0  0  0  0  0
   24.1860   51.3180   20.4250 C   0  0  0  0  0  0  0  0  0  0  0  0
   23.1290   51.0000   19.5570 C   0  0  0  0  0  0  0  0  0  0  0  0
   23.4330   50.5430   18.1570 C   0  0  0  0  0  0  0  0  0  0  0  0
   21.7960   51.1360   20.0060 C   0  0  0  0  0  0  0  0  0  0  0  0
   20.6950   50.8750   19.1180 N   0  0  0  0  0  0  0  0  0  0  0  0
   19.9640   49.6410   19.1010 C   0  0  0  0  0  0  0  0  0  0  0  0
   20.6040   48.4500   19.2500 N   0  0  0  0  0  0  0  0  0  0  0  0
   19.9200   47.2790   19.2070 C   0  0  0  0  0  0  0  0  0  0  0  0
   18.5420   47.2830   19.0020 C   0  0  0  0  0  0  0  0  0  0  0  0
   17.8860   48.5150   18.8460 C   0  0  0  0  0  0  0  0  0  0  0  0
   16.4210   48.5990   18.6130 C   0  0  0  0  0  0  0  0  0  0  0  0
   15.5050   48.6990   19.6770 C   0  0  0  0  0  0  0  0  0  0  0  0
   14.1360   48.7840   19.4210 C   0  0  0  0  0  0  0  0  0  0  0  0
   13.6850   48.7760   18.1010 C   0  0  0  0  0  0  0  0  0  0  0  0
   14.5750   48.6900   17.0780 N   0  0  0  0  0  0  0  0  0  0  0  0
   15.9140   48.6060   17.3000 C   0  0  0  0  0  0  0  0  0  0  0  0
   18.6210   49.6610   18.8900 N   0  0  0  0  0  0  0  0  0  0  0  0
   21.5530   51.5870   21.3160 C   0  0  0  0  0  0  0  0  0  0  0  0
   22.3680   53.6340   25.9999 H   0  0  0  0  0  0  0  0  0  0  0  0
   21.8229   55.2149   25.3437 H   0  0  0  0  0  0  0  0  0  0  0  0
   20.7050   53.8089   25.3437 H   0  0  0  0  0  0  0  0  0  0  0  0
   22.2450   51.6400   24.2870 H   0  0  0  0  0  0  0  0  0  0  0  0
   24.7691   51.9925   22.3968 H   0  0  0  0  0  0  0  0  0  0  0  0
   25.2248   51.2281   20.0744 H   0  0  0  0  0  0  0  0  0  0  0  0
   24.0419   49.6277   18.1942 H   0  0  0  0  0  0  0  0  0  0  0  0
   22.4919   50.3361   17.6264 H   0  0  0  0  0  0  0  0  0  0  0  0
   23.9875   51.3310   17.6264 H   0  0  0  0  0  0  0  0  0  0  0  0
   20.4420   51.5970   18.4060 H   0  0  0  0  0  0  0  0  0  0  0  0
   20.4539   46.3257   19.3341 H   0  0  0  0  0  0  0  0  0  0  0  0
   17.9785   46.3391   18.9631 H   0  0  0  0  0  0  0  0  0  0  0  0
   15.8699   48.7102   20.7147 H   0  0  0  0  0  0  0  0  0  0  0  0
   13.4192   48.8566   20.2522 H   0  0  0  0  0  0  0  0  0  0  0  0
   12.6077   48.8394   17.8881 H   0  0  0  0  0  0  0  0  0  0  0  0
   16.6059   48.5431   16.4472 H   0  0  0  0  0  0  0  0  0  0  0  0
   20.5167   51.7219   21.6594 H   0  0  0  0  0  0  0  0  0  0  0  0
  1  2  1  0
  2  3  2  0
  2  4  1  0
  4  5  1  0
  5  6  2  0
  6  7  1  0
  7  8  2  0
  8  9  1  0
  8 10  1  0
 10 11  1  0
 11 12  1  0
 12 13  2  0
 13 14  1  0
 14 15  2  0
 15 16  1  0
 16 17  1  0
 17 18  2  0
 18 19  1  0
 19 20  2  0
 20 21  1  0
 21 22  2  0
 16 23  2  0
 10 24  2  0
 24  5  1  0
 23 12  1  0
 22 17  1  0
  1 25  1  0
  1 26  1  0
  1 27  1  0
  4 28  1  0
  6 29  1  0
  7 30  1  0
  9 31  1  0
  9 32  1  0
  9 33  1  0
 11 34  1  0
 14 35  1  0
 15 36  1  0
 18 37  1  0
 19 38  1  0
 20 39  1  0
 22 40  1  0
 24 41  1  0
M  END
>  <meeko>  (9) 
{"is_sidechain": [false], "free_energy": -7.55, "intermolecular_energy": -9.295, "internal_energy": -0.645}

$$$$
