
     RDKit          3D

 59 61  0  0  0  0  0  0  0  0999 V2000
   15.6450   51.0680   16.6140 C   0  0  0  0  0  0  0  0  0  0  0  0
   15.5410   52.1430   15.5820 C   0  0  0  0  0  0  0  0  0  0  0  0
   14.4660   52.7930   15.4740 O   0  0  0  0  0  0  0  0  0  0  0  0
   16.6900   52.4880   14.7920 N   0  0  0  0  0  0  0  0  0  0  0  0
   16.6520   53.3780   13.6610 C   0  0  0  0  0  0  0  0  0  0  0  0
   17.1690   52.9970   12.4140 C   0  0  0  0  0  0  0  0  0  0  0  0
   17.1550   53.8900   11.3410 C   0  0  0  0  0  0  0  0  0  0  0  0
   16.6220   55.1800   11.4920 C   0  0  0  0  0  0  0  0  0  0  0  0
   16.6210   56.1230   10.3200 C   0  0  0  0  0  0  0  0  0  0  0  0
   16.1160   55.5800   12.7490 C   0  0  0  0  0  0  0  0  0  0  0  0
   15.6190   56.9160   12.9460 N   0  0  0  0  0  0  0  0  0  0  0  0
   14.3300   57.3590   12.5000 C   0  0  0  0  0  0  0  0  0  0  0  0
   13.4330   56.4780   11.9800 N   0  0  0  0  0  0  0  0  0  0  0  0
   12.2230   56.8960   11.5310 C   0  0  0  0  0  0  0  0  0  0  0  0
   11.8840   58.2470   11.5930 C   0  0  0  0  0  0  0  0  0  0  0  0
   12.8140   59.1520   12.1290 C   0  0  0  0  0  0  0  0  0  0  0  0
   12.5290   60.6080   12.2190 C   0  0  0  0  0  0  0  0  0  0  0  0
   11.6220   61.2410   11.3500 C   0  0  0  0  0  0  0  0  0  0  0  0
   11.3720   62.6080   11.4680 C   0  0  0  0  0  0  0  0  0  0  0  0
   12.0270   63.3410   12.4580 C   0  0  0  0  0  0  0  0  0  0  0  0
   12.8940   62.7200   13.3010 N   0  0  0  0  0  0  0  0  0  0  0  0
   13.1550   61.3890   13.2070 C   0  0  0  0  0  0  0  0  0  0  0  0
   14.0180   58.6800   12.5580 N   0  0  0  0  0  0  0  0  0  0  0  0
   16.1530   54.6770   13.8260 C   0  0  0  0  0  0  0  0  0  0  0  0
   15.6015   51.5173   17.6171 H   0  0  0  0  0  0  0  0  0  0  0  0
   14.8111   50.3611   16.4924 H   0  0  0  0  0  0  0  0  0  0  0  0
   16.5990   50.5340   16.4924 H   0  0  0  0  0  0  0  0  0  0  0  0
   17.6200   52.1380   15.1120 H   0  0  0  0  0  0  0  0  0  0  0  0
   17.5879   51.9887   12.2807 H   0  0  0  0  0  0  0  0  0  0  0  0
   17.5653   53.5801   10.3685 H   0  0  0  0  0  0  0  0  0  0  0  0
   16.6199   57.1609   10.6845 H   0  0  0  0  0  0  0  0  0  0  0  0
   17.5193   55.9498    9.7093 H   0  0  0  0  0  0  0  0  0  0  0  0
   15.7230   55.9479    9.7093 H   0  0  0  0  0  0  0  0  0  0  0  0
   16.2470   57.6240   13.3900 H   0  0  0  0  0  0  0  0  0  0  0  0
   11.5088   56.1686   11.1177 H   0  0  0  0  0  0  0  0  0  0  0  0
   10.9068   58.5971   11.2290 H   0  0  0  0  0  0  0  0  0  0  0  0
   11.1076   60.6553   10.5739 H   0  0  0  0  0  0  0  0  0  0  0  0
   10.6648   63.1037   10.7867 H   0  0  0  0  0  0  0  0  0  0  0  0
   11.8420   64.4209   12.5564 H   0  0  0  0  0  0  0  0  0  0  0  0
   13.8606   60.9198   13.9085 H   0  0  0  0  0  0  0  0  0  0  0  0
   15.7848   54.9949   14.8126 H   0  0  0  0  0  0  0  0  0  0  0  0
   18.5420   56.2570   18.3510 C   0  0  0  0  0  0  0  0  0  0  0  0
   18.0800   57.7240   18.3080 C   0  0  0  0  0  0  0  0  0  0  0  0
   16.6660   57.8990   17.8220 C   0  0  0  0  0  0  0  0  0  0  0  0
   16.3260   57.6040   16.5110 C   0  0  0  0  0  0  0  0  0  0  0  0
   15.0550   57.8170   16.0450 C   0  0  0  0  0  0  0  0  0  0  0  0
   14.1030   58.3250   16.8830 C   0  0  0  0  0  0  0  0  0  0  0  0
   14.4190   58.6200   18.1930 C   0  0  0  0  0  0  0  0  0  0  0  0
   15.6890   58.4070   18.6590 C   0  0  0  0  0  0  0  0  0  0  0  0
   18.6434   55.9351   19.3979 H   0  0  0  0  0  0  0  0  0  0  0  0
   17.7998   55.6238   17.8429 H   0  0  0  0  0  0  0  0  0  0  0  0
   19.5131   56.1634   17.8429 H   0  0  0  0  0  0  0  0  0  0  0  0
   18.1523   58.1408   19.3234 H   0  0  0  0  0  0  0  0  0  0  0  0
   18.7327   58.2458   17.5927 H   0  0  0  0  0  0  0  0  0  0  0  0
   17.0887   57.1923   15.8337 H   0  0  0  0  0  0  0  0  0  0  0  0
   14.8024   57.5800   15.0009 H   0  0  0  0  0  0  0  0  0  0  0  0
   13.0821   58.4992   16.5122 H   0  0  0  0  0  0  0  0  0  0  0  0
   13.6491   59.0273   18.8648 H   0  0  0  0  0  0  0  0  0  0  0  0
   15.9337   58.6414   19.7055 H   0  0  0  0  0  0  0  0  0  0  0  0
  1  2  1  0
  2  3  2  0
  2  4  1  0
  4  5  1  0
  5  6  2  0
  6  7  1  0
  7  8  2  0
  8  9  1  0
  8 10  1  0
 10 11  1  0
 11 12  1  0
 12 13  2  0
 13 14  1  0
 14 15  2  0
 15 16  1  0
 16 17  1  0
 17 18  2  0
 18 19  1  0
 19 20  2  0
 20 21  1  0
 21 22  2  0
 16 23  2  0
 10 24  2  0
 24  5  1  0
 23 12  1  0
 22 17  1  0
  1 25  1  0
  1 26  1  0
  1 27  1  0
  4 28  1  0
  6 29  1  0
  7 30  1  0
  9 31  1  0
  9 32  1  0
  9 33  1  0
 11 34  1  0
 14 35  1  0
 15 36  1  0
 18 37  1  0
 19 38  1  0
 20 39  1  0
 22 40  1  0
 24 41  1  0
 42 43  1  0
 43 44  1  0
 44 45  2  0
 45 46  1  0
 46 47  2  0
 47 48  1  0
 48 49  2  0
 49 44  1  0
 42 50  1  0
 42 51  1  0
 42 52  1  0
 43 53  1  0
 43 54  1  0
 45 55  1  0
 46 56  1  0
 47 57  1  0
 48 58  1  0
 49 59  1  0
M  END
>  <meeko>  (1) 
{"is_sidechain": [false, true], "free_energy": -9.668, "intermolecular_energy": -11.929, "internal_energy": -3.431}

$$$$

     RDKit          3D

 59 61  0  0  0  0  0  0  0  0999 V2000
   13.0960   50.2330   17.3180 C   0  0  0  0  0  0  0  0  0  0  0  0
   14.0700   49.2040   17.7930 C   0  0  0  0  0  0  0  0  0  0  0  0
   14.7410   48.5540   16.9460 O   0  0  0  0  0  0  0  0  0  0  0  0
   14.2990   49.0330   19.2000 N   0  0  0  0  0  0  0  0  0  0  0  0
   15.0760   47.9610   19.7650 C   0  0  0  0  0  0  0  0  0  0  0  0
   14.5090   46.7040   20.0240 C   0  0  0  0  0  0  0  0  0  0  0  0
   15.2720   45.6910   20.6060 C   0  0  0  0  0  0  0  0  0  0  0  0
   16.6180   45.9140   20.9410 C   0  0  0  0  0  0  0  0  0  0  0  0
   17.4170   44.8050   21.5700 C   0  0  0  0  0  0  0  0  0  0  0  0
   17.1930   47.1820   20.7030 C   0  0  0  0  0  0  0  0  0  0  0  0
   18.5520   47.4540   21.0920 N   0  0  0  0  0  0  0  0  0  0  0  0
   19.6660   47.3760   20.1930 C   0  0  0  0  0  0  0  0  0  0  0  0
   20.1440   46.1710   19.7790 N   0  0  0  0  0  0  0  0  0  0  0  0
   21.2150   46.0910   18.9510 C   0  0  0  0  0  0  0  0  0  0  0  0
   21.8480   47.2530   18.5150 C   0  0  0  0  0  0  0  0  0  0  0  0
   21.3540   48.4940   18.9470 C   0  0  0  0  0  0  0  0  0  0  0  0
   21.9820   49.7760   18.5340 C   0  0  0  0  0  0  0  0  0  0  0  0
   23.3330   49.8490   18.1480 C   0  0  0  0  0  0  0  0  0  0  0  0
   23.8880   51.0690   17.7580 C   0  0  0  0  0  0  0  0  0  0  0  0
   23.0900   52.2120   17.7490 C   0  0  0  0  0  0  0  0  0  0  0  0
   21.7830   52.1320   18.1130 N   0  0  0  0  0  0  0  0  0  0  0  0
   21.2180   50.9570   18.4960 C   0  0  0  0  0  0  0  0  0  0  0  0
   20.2790   48.5170   19.7850 N   0  0  0  0  0  0  0  0  0  0  0  0
   16.4070   48.1990   20.1320 C   0  0  0  0  0  0  0  0  0  0  0  0
   12.6304   50.7249   18.1848 H   0  0  0  0  0  0  0  0  0  0  0  0
   13.6226   50.9832   16.7098 H   0  0  0  0  0  0  0  0  0  0  0  0
   12.3180   49.7484   16.7098 H   0  0  0  0  0  0  0  0  0  0  0  0
   13.9500   49.7800   19.8410 H   0  0  0  0  0  0  0  0  0  0  0  0
   13.4562   46.5159   19.7666 H   0  0  0  0  0  0  0  0  0  0  0  0
   14.8159   44.7098   20.8041 H   0  0  0  0  0  0  0  0  0  0  0  0
   17.3583   44.8865   22.6654 H   0  0  0  0  0  0  0  0  0  0  0  0
   17.0097   43.8338   21.2522 H   0  0  0  0  0  0  0  0  0  0  0  0
   18.4671   44.8839   21.2522 H   0  0  0  0  0  0  0  0  0  0  0  0
   18.7530   47.6680   22.0940 H   0  0  0  0  0  0  0  0  0  0  0  0
   21.5842   45.1080   18.6234 H   0  0  0  0  0  0  0  0  0  0  0  0
   22.7186   47.1990   17.8448 H   0  0  0  0  0  0  0  0  0  0  0  0
   23.9543   48.9412   18.1536 H   0  0  0  0  0  0  0  0  0  0  0  0
   24.9454   51.1279   17.4605 H   0  0  0  0  0  0  0  0  0  0  0  0
   23.5184   53.1792   17.4471 H   0  0  0  0  0  0  0  0  0  0  0  0
   20.1553   50.9289   18.7785 H   0  0  0  0  0  0  0  0  0  0  0  0
   16.8436   49.1958   19.9712 H   0  0  0  0  0  0  0  0  0  0  0  0
   18.5420   56.2570   18.3510 C   0  0  0  0  0  0  0  0  0  0  0  0
   18.0800   57.7240   18.3080 C   0  0  0  0  0  0  0  0  0  0  0  0
   17.0040   57.9900   17.2890 C   0  0  0  0  0  0  0  0  0  0  0  0
   15.6740   58.0740   17.6690 C   0  0  0  0  0  0  0  0  0  0  0  0
   14.6830   58.2570   16.7400 C   0  0  0  0  0  0  0  0  0  0  0  0
   15.0070   58.3610   15.4170 C   0  0  0  0  0  0  0  0  0  0  0  0
   16.3250   58.2850   15.0180 C   0  0  0  0  0  0  0  0  0  0  0  0
   17.3150   58.1030   15.9470 C   0  0  0  0  0  0  0  0  0  0  0  0
   18.6434   55.9351   19.3979 H   0  0  0  0  0  0  0  0  0  0  0  0
   17.7998   55.6238   17.8429 H   0  0  0  0  0  0  0  0  0  0  0  0
   19.5131   56.1634   17.8429 H   0  0  0  0  0  0  0  0  0  0  0  0
   17.6925   57.9953   19.3011 H   0  0  0  0  0  0  0  0  0  0  0  0
   18.9529   58.3276   18.0188 H   0  0  0  0  0  0  0  0  0  0  0  0
   15.4093   57.9925   18.7336 H   0  0  0  0  0  0  0  0  0  0  0  0
   13.6319   58.3198   17.0582 H   0  0  0  0  0  0  0  0  0  0  0  0
   14.2146   58.5057   14.6679 H   0  0  0  0  0  0  0  0  0  0  0  0
   16.5817   58.3707   13.9518 H   0  0  0  0  0  0  0  0  0  0  0  0
   18.3646   58.0464   15.6228 H   0  0  0  0  0  0  0  0  0  0  0  0
  1  2  1  0
  2  3  2  0
  2  4  1  0
  4  5  1  0
  5  6  2  0
  6  7  1  0
  7  8  2  0
  8  9  1  0
  8 10  1  0
 10 11  1  0
 11 12  1  0
 12 13  2  0
 13 14  1  0
 14 15  2  0
 15 16  1  0
 16 17  1  0
 17 18  2  0
 18 19  1  0
 19 20  2  0
 20 21  1  0
 21 22  2  0
 16 23  2  0
 10 24  2  0
 24  5  1  0
 23 12  1  0
 22 17  1  0
  1 25  1  0
  1 26  1  0
  1 27  1  0
  4 28  1  0
  6 29  1  0
  7 30  1  0
  9 31  1  0
  9 32  1  0
  9 33  1  0
 11 34  1  0
 14 35  1  0
 15 36  1  0
 18 37  1  0
 19 38  1  0
 20 39  1  0
 22 40  1  0
 24 41  1  0
 42 43  1  0
 43 44  1  0
 44 45  2  0
 45 46  1  0
 46 47  2  0
 47 48  1  0
 48 49  2  0
 49 44  1  0
 42 50  1  0
 42 51  1  0
 42 52  1  0
 43 53  1  0
 43 54  1  0
 45 55  1  0
 46 56  1  0
 47 57  1  0
 48 58  1  0
 49 59  1  0
M  END
>  <meeko>  (2) 
{"is_sidechain": [false, true], "free_energy": -8.5, "intermolecular_energy": -9.48, "internal_energy": -4.439}

$$$$

     RDKit          3D

 59 61  0  0  0  0  0  0  0  0999 V2000
   14.8970   51.4100   16.0840 C   0  0  0  0  0  0  0  0  0  0  0  0
   15.0990   50.2390   16.9890 C   0  0  0  0  0  0  0  0  0  0  0  0
   15.8790   49.3130   16.6350 O   0  0  0  0  0  0  0  0  0  0  0  0
   14.4810   50.2220   18.2850 N   0  0  0  0  0  0  0  0  0  0  0  0
   14.4660   49.0770   19.1560 C   0  0  0  0  0  0  0  0  0  0  0  0
   13.3470   48.2350   19.2400 C   0  0  0  0  0  0  0  0  0  0  0  0
   13.3420   47.1510   20.1190 C   0  0  0  0  0  0  0  0  0  0  0  0
   14.4560   46.8850   20.9320 C   0  0  0  0  0  0  0  0  0  0  0  0
   14.4220   45.7110   21.8720 C   0  0  0  0  0  0  0  0  0  0  0  0
   15.5810   47.7370   20.8700 C   0  0  0  0  0  0  0  0  0  0  0  0
   16.7100   47.5220   21.7350 N   0  0  0  0  0  0  0  0  0  0  0  0
   17.9310   46.9020   21.3080 C   0  0  0  0  0  0  0  0  0  0  0  0
   18.1890   45.5990   21.6020 N   0  0  0  0  0  0  0  0  0  0  0  0
   19.3540   45.0150   21.2250 C   0  0  0  0  0  0  0  0  0  0  0  0
   20.3120   45.7530   20.5310 C   0  0  0  0  0  0  0  0  0  0  0  0
   20.0420   47.0980   20.2330 C   0  0  0  0  0  0  0  0  0  0  0  0
   21.0170   47.9510   19.5060 C   0  0  0  0  0  0  0  0  0  0  0  0
   22.2820   47.4690   19.1210 C   0  0  0  0  0  0  0  0  0  0  0  0
   23.1700   48.2960   18.4330 C   0  0  0  0  0  0  0  0  0  0  0  0
   22.7910   49.6030   18.1250 C   0  0  0  0  0  0  0  0  0  0  0  0
   21.5640   50.0580   18.4900 N   0  0  0  0  0  0  0  0  0  0  0  0
   20.6800   49.2730   19.1610 C   0  0  0  0  0  0  0  0  0  0  0  0
   18.8590   47.6370   20.6410 N   0  0  0  0  0  0  0  0  0  0  0  0
   15.5650   48.8360   19.9920 C   0  0  0  0  0  0  0  0  0  0  0  0
   14.7406   52.3167   16.6869 H   0  0  0  0  0  0  0  0  0  0  0  0
   15.7859   51.5405   15.4493 H   0  0  0  0  0  0  0  0  0  0  0  0
   14.0157   51.2352   15.4493 H   0  0  0  0  0  0  0  0  0  0  0  0
   14.0950   51.1220   18.6480 H   0  0  0  0  0  0  0  0  0  0  0  0
   12.4676   48.4305   18.6088 H   0  0  0  0  0  0  0  0  0  0  0  0
   12.4578   46.4992   20.1756 H   0  0  0  0  0  0  0  0  0  0  0  0
   14.4325   46.0726   22.9108 H   0  0  0  0  0  0  0  0  0  0  0  0
   13.5066   45.1270   21.6963 H   0  0  0  0  0  0  0  0  0  0  0  0
   15.3021   45.0750   21.6963 H   0  0  0  0  0  0  0  0  0  0  0  0
   16.6250   47.7800   22.7440 H   0  0  0  0  0  0  0  0  0  0  0  0
   19.5429   43.9587   21.4670 H   0  0  0  0  0  0  0  0  0  0  0  0
   21.2612   45.2902   20.2229 H   0  0  0  0  0  0  0  0  0  0  0  0
   22.5716   46.4359   19.3636 H   0  0  0  0  0  0  0  0  0  0  0  0
   24.1605   47.9210   18.1359 H   0  0  0  0  0  0  0  0  0  0  0  0
   23.4855   50.2648   17.5868 H   0  0  0  0  0  0  0  0  0  0  0  0
   19.6935   49.6743   19.4364 H   0  0  0  0  0  0  0  0  0  0  0  0
   16.4284   49.5169   19.9610 H   0  0  0  0  0  0  0  0  0  0  0  0
   18.5420   56.2570   18.3510 C   0  0  0  0  0  0  0  0  0  0  0  0
   18.0800   57.7240   18.3080 C   0  0  0  0  0  0  0  0  0  0  0  0
   16.9970   57.9880   17.2960 C   0  0  0  0  0  0  0  0  0  0  0  0
   15.6710   58.0920   17.6880 C   0  0  0  0  0  0  0  0  0  0  0  0
   14.6740   58.2730   16.7660 C   0  0  0  0  0  0  0  0  0  0  0  0
   14.9850   58.3550   15.4390 C   0  0  0  0  0  0  0  0  0  0  0  0
   16.2990   58.2590   15.0280 C   0  0  0  0  0  0  0  0  0  0  0  0
   17.2960   58.0800   15.9490 C   0  0  0  0  0  0  0  0  0  0  0  0
   18.6434   55.9351   19.3979 H   0  0  0  0  0  0  0  0  0  0  0  0
   17.7998   55.6238   17.8429 H   0  0  0  0  0  0  0  0  0  0  0  0
   19.5131   56.1634   17.8429 H   0  0  0  0  0  0  0  0  0  0  0  0
   17.6995   57.9976   19.3032 H   0  0  0  0  0  0  0  0  0  0  0  0
   18.9510   58.3268   18.0114 H   0  0  0  0  0  0  0  0  0  0  0  0
   15.4156   58.0282   18.7560 H   0  0  0  0  0  0  0  0  0  0  0  0
   13.6269   58.3520   17.0935 H   0  0  0  0  0  0  0  0  0  0  0  0
   14.1866   58.4979   14.6960 H   0  0  0  0  0  0  0  0  0  0  0  0
   16.5458   58.3264   13.9582 H   0  0  0  0  0  0  0  0  0  0  0  0
   18.3418   58.0089   15.6153 H   0  0  0  0  0  0  0  0  0  0  0  0
  1  2  1  0
  2  3  2  0
  2  4  1  0
  4  5  1  0
  5  6  2  0
  6  7  1  0
  7  8  2  0
  8  9  1  0
  8 10  1  0
 10 11  1  0
 11 12  1  0
 12 13  2  0
 13 14  1  0
 14 15  2  0
 15 16  1  0
 16 17  1  0
 17 18  2  0
 18 19  1  0
 19 20  2  0
 20 21  1  0
 21 22  2  0
 16 23  2  0
 10 24  2  0
 24  5  1  0
 23 12  1  0
 22 17  1  0
  1 25  1  0
  1 26  1  0
  1 27  1  0
  4 28  1  0
  6 29  1  0
  7 30  1  0
  9 31  1  0
  9 32  1  0
  9 33  1  0
 11 34  1  0
 14 35  1  0
 15 36  1  0
 18 37  1  0
 19 38  1  0
 20 39  1  0
 22 40  1  0
 24 41  1  0
 42 43  1  0
 43 44  1  0
 44 45  2  0
 45 46  1  0
 46 47  2  0
 47 48  1  0
 48 49  2  0
 49 44  1  0
 42 50  1  0
 42 51  1  0
 42 52  1  0
 43 53  1  0
 43 54  1  0
 45 55  1  0
 46 56  1  0
 47 57  1  0
 48 58  1  0
 49 59  1  0
M  END
>  <meeko>  (3) 
{"is_sidechain": [false, true], "free_energy": -8.391, "intermolecular_energy": -9.277, "internal_energy": -4.507}

$$$$

     RDKit          3D

 59 61  0  0  0  0  0  0  0  0999 V2000
   13.5100   47.6750   19.8270 C   0  0  0  0  0  0  0  0  0  0  0  0
   14.6270   47.0200   20.5710 C   0  0  0  0  0  0  0  0  0  0  0  0
   14.3740   46.3870   21.6320 O   0  0  0  0  0  0  0  0  0  0  0  0
   15.9560   47.0380   20.0270 N   0  0  0  0  0  0  0  0  0  0  0  0
   17.1250   46.5960   20.7390 C   0  0  0  0  0  0  0  0  0  0  0  0
   17.6200   45.2910   20.5970 C   0  0  0  0  0  0  0  0  0  0  0  0
   18.7340   44.8740   21.3260 C   0  0  0  0  0  0  0  0  0  0  0  0
   19.3780   45.7530   22.2120 C   0  0  0  0  0  0  0  0  0  0  0  0
   20.5760   45.2760   22.9870 C   0  0  0  0  0  0  0  0  0  0  0  0
   18.8770   47.0630   22.3770 C   0  0  0  0  0  0  0  0  0  0  0  0
   19.4820   47.9630   23.3230 N   0  0  0  0  0  0  0  0  0  0  0  0
   20.2060   49.1430   22.9460 C   0  0  0  0  0  0  0  0  0  0  0  0
   20.8150   49.2270   21.7330 N   0  0  0  0  0  0  0  0  0  0  0  0
   21.5250   50.3290   21.3820 C   0  0  0  0  0  0  0  0  0  0  0  0
   21.6430   51.3950   22.2730 C   0  0  0  0  0  0  0  0  0  0  0  0
   21.0150   51.3020   23.5250 C   0  0  0  0  0  0  0  0  0  0  0  0
   21.1050   52.3920   24.5310 C   0  0  0  0  0  0  0  0  0  0  0  0
   20.8610   52.1620   25.8970 C   0  0  0  0  0  0  0  0  0  0  0  0
   20.9620   53.2070   26.8160 C   0  0  0  0  0  0  0  0  0  0  0  0
   21.3140   54.4800   26.3670 C   0  0  0  0  0  0  0  0  0  0  0  0
   21.5590   54.6930   25.0480 N   0  0  0  0  0  0  0  0  0  0  0  0
   21.4670   53.6920   24.1330 C   0  0  0  0  0  0  0  0  0  0  0  0
   20.3210   50.1690   23.8290 N   0  0  0  0  0  0  0  0  0  0  0  0
   17.7430   47.4640   21.6500 C   0  0  0  0  0  0  0  0  0  0  0  0
   12.7901   48.0972   20.5436 H   0  0  0  0  0  0  0  0  0  0  0  0
   13.9129   48.4799   19.1947 H   0  0  0  0  0  0  0  0  0  0  0  0
   13.0043   46.9304   19.1947 H   0  0  0  0  0  0  0  0  0  0  0  0
   16.0630   47.3090   19.0230 H   0  0  0  0  0  0  0  0  0  0  0  0
   17.1264   44.5917   19.9061 H   0  0  0  0  0  0  0  0  0  0  0  0
   19.1113   43.8477   21.2058 H   0  0  0  0  0  0  0  0  0  0  0  0
   20.3716   45.3574   24.0648 H   0  0  0  0  0  0  0  0  0  0  0  0
   20.7839   44.2265   22.7314 H   0  0  0  0  0  0  0  0  0  0  0  0
   21.4484   45.8954   22.7314 H   0  0  0  0  0  0  0  0  0  0  0  0
   19.4430   47.7240   24.3390 H   0  0  0  0  0  0  0  0  0  0  0  0
   22.0073   50.3812   20.3948 H   0  0  0  0  0  0  0  0  0  0  0  0
   22.2176   52.2923   21.9999 H   0  0  0  0  0  0  0  0  0  0  0  0
   20.5893   51.1536   26.2424 H   0  0  0  0  0  0  0  0  0  0  0  0
   20.7661   53.0289   27.8837 H   0  0  0  0  0  0  0  0  0  0  0  0
   21.3933   55.3123   27.0819 H   0  0  0  0  0  0  0  0  0  0  0  0
   21.6771   53.8999   23.0735 H   0  0  0  0  0  0  0  0  0  0  0  0
   17.3341   48.4744   21.7981 H   0  0  0  0  0  0  0  0  0  0  0  0
   18.5420   56.2570   18.3510 C   0  0  0  0  0  0  0  0  0  0  0  0
   18.0800   57.7240   18.3080 C   0  0  0  0  0  0  0  0  0  0  0  0
   16.9900   57.9860   17.3040 C   0  0  0  0  0  0  0  0  0  0  0  0
   15.6640   58.0610   17.7000 C   0  0  0  0  0  0  0  0  0  0  0  0
   14.6610   58.2400   16.7840 C   0  0  0  0  0  0  0  0  0  0  0  0
   14.9670   58.3490   15.4570 C   0  0  0  0  0  0  0  0  0  0  0  0
   16.2810   58.2820   15.0410 C   0  0  0  0  0  0  0  0  0  0  0  0
   17.2840   58.1040   15.9570 C   0  0  0  0  0  0  0  0  0  0  0  0
   18.6434   55.9351   19.3979 H   0  0  0  0  0  0  0  0  0  0  0  0
   17.7998   55.6238   17.8429 H   0  0  0  0  0  0  0  0  0  0  0  0
   19.5131   56.1634   17.8429 H   0  0  0  0  0  0  0  0  0  0  0  0
   17.7071   58.0000   19.3054 H   0  0  0  0  0  0  0  0  0  0  0  0
   18.9489   58.3258   18.0034 H   0  0  0  0  0  0  0  0  0  0  0  0
   15.4127   57.9754   18.7675 H   0  0  0  0  0  0  0  0  0  0  0  0
   13.6137   58.2957   17.1156 H   0  0  0  0  0  0  0  0  0  0  0  0
   14.1641   58.4905   14.7185 H   0  0  0  0  0  0  0  0  0  0  0  0
   16.5236   58.3717   13.9718 H   0  0  0  0  0  0  0  0  0  0  0  0
   18.3298   58.0546   15.6196 H   0  0  0  0  0  0  0  0  0  0  0  0
  1  2  1  0
  2  3  2  0
  2  4  1  0
  4  5  1  0
  5  6  2  0
  6  7  1  0
  7  8  2  0
  8  9  1  0
  8 10  1  0
 10 11  1  0
 11 12  1  0
 12 13  2  0
 13 14  1  0
 14 15  2  0
 15 16  1  0
 16 17  1  0
 17 18  2  0
 18 19  1  0
 19 20  2  0
 20 21  1  0
 21 22  2  0
 16 23  2  0
 10 24  2  0
 24  5  1  0
 23 12  1  0
 22 17  1  0
  1 25  1  0
  1 26  1  0
  1 27  1  0
  4 28  1  0
  6 29  1  0
  7 30  1  0
  9 31  1  0
  9 32  1  0
  9 33  1  0
 11 34  1  0
 14 35  1  0
 15 36  1  0
 18 37  1  0
 19 38  1  0
 20 39  1  0
 22 40  1  0
 24 41  1  0
 42 43  1  0
 43 44  1  0
 44 45  2  0
 45 46  1  0
 46 47  2  0
 47 48  1  0
 48 49  2  0
 49 44  1  0
 42 50  1  0
 42 51  1  0
 42 52  1  0
 43 53  1  0
 43 54  1  0
 45 55  1  0
 46 56  1  0
 47 57  1  0
 48 58  1  0
 49 59  1  0
M  END
>  <meeko>  (4) 
{"is_sidechain": [false, true], "free_energy": -8.167, "intermolecular_energy": -9.134, "internal_energy": -4.374}

$$$$

     RDKit          3D

 59 61  0  0  0  0  0  0  0  0999 V2000
   23.0280   51.5510   17.8000 C   0  0  0  0  0  0  0  0  0  0  0  0
   22.5580   50.4210   18.6560 C   0  0  0  0  0  0  0  0  0  0  0  0
   23.1550   50.1780   19.7400 O   0  0  0  0  0  0  0  0  0  0  0  0
   21.3810   49.6860   18.2860 N   0  0  0  0  0  0  0  0  0  0  0  0
   20.9470   48.4790   18.9380 C   0  0  0  0  0  0  0  0  0  0  0  0
   21.5290   47.2370   18.6430 C   0  0  0  0  0  0  0  0  0  0  0  0
   21.0660   46.0740   19.2610 C   0  0  0  0  0  0  0  0  0  0  0  0
   20.0130   46.1290   20.1880 C   0  0  0  0  0  0  0  0  0  0  0  0
   19.5330   44.8600   20.8380 C   0  0  0  0  0  0  0  0  0  0  0  0
   19.4070   47.3720   20.4790 C   0  0  0  0  0  0  0  0  0  0  0  0
   18.2870   47.4460   21.3800 N   0  0  0  0  0  0  0  0  0  0  0  0
   16.9310   47.2020   20.9830 C   0  0  0  0  0  0  0  0  0  0  0  0
   16.2400   46.1410   21.4800 N   0  0  0  0  0  0  0  0  0  0  0  0
   14.9660   45.8900   21.0880 C   0  0  0  0  0  0  0  0  0  0  0  0
   14.3470   46.7220   20.1570 C   0  0  0  0  0  0  0  0  0  0  0  0
   15.0640   47.8140   19.6450 C   0  0  0  0  0  0  0  0  0  0  0  0
   14.4740   48.7390   18.6420 C   0  0  0  0  0  0  0  0  0  0  0  0
   13.1150   48.6780   18.2850 C   0  0  0  0  0  0  0  0  0  0  0  0
   12.5930   49.5670   17.3450 C   0  0  0  0  0  0  0  0  0  0  0  0
   13.4310   50.5210   16.7660 C   0  0  0  0  0  0  0  0  0  0  0  0
   14.7410   50.5810   17.1230 N   0  0  0  0  0  0  0  0  0  0  0  0
   15.2740   49.7260   18.0370 C   0  0  0  0  0  0  0  0  0  0  0  0
   16.3430   48.0160   20.0670 N   0  0  0  0  0  0  0  0  0  0  0  0
   19.8710   48.5320   19.8350 C   0  0  0  0  0  0  0  0  0  0  0  0
   23.3717   52.3773   18.4397 H   0  0  0  0  0  0  0  0  0  0  0  0
   23.8585   51.2091   17.1649 H   0  0  0  0  0  0  0  0  0  0  0  0
   22.2000   51.8989   17.1649 H   0  0  0  0  0  0  0  0  0  0  0  0
   20.7610   50.1020   17.5560 H   0  0  0  0  0  0  0  0  0  0  0  0
   22.3558   47.1792   17.9198 H   0  0  0  0  0  0  0  0  0  0  0  0
   21.5301   45.1064   19.0196 H   0  0  0  0  0  0  0  0  0  0  0  0
   19.5745   44.9698   21.9317 H   0  0  0  0  0  0  0  0  0  0  0  0
   18.4967   44.6589   20.5288 H   0  0  0  0  0  0  0  0  0  0  0  0
   20.1768   44.0234   20.5288 H   0  0  0  0  0  0  0  0  0  0  0  0
   18.4560   47.7460   22.3660 H   0  0  0  0  0  0  0  0  0  0  0  0
   14.4215   45.0299   21.5049 H   0  0  0  0  0  0  0  0  0  0  0  0
   13.3153   46.5262   19.8296 H   0  0  0  0  0  0  0  0  0  0  0  0
   12.4604   47.9256   18.7492 H   0  0  0  0  0  0  0  0  0  0  0  0
   11.5310   49.5165   17.0629 H   0  0  0  0  0  0  0  0  0  0  0  0
   13.0313   51.2244   16.0207 H   0  0  0  0  0  0  0  0  0  0  0  0
   16.3378   49.8067   18.3050 H   0  0  0  0  0  0  0  0  0  0  0  0
   19.3823   49.4963   20.0380 H   0  0  0  0  0  0  0  0  0  0  0  0
   18.5420   56.2570   18.3510 C   0  0  0  0  0  0  0  0  0  0  0  0
   18.0800   57.7240   18.3080 C   0  0  0  0  0  0  0  0  0  0  0  0
   17.0020   57.9890   17.2920 C   0  0  0  0  0  0  0  0  0  0  0  0
   15.6770   58.1130   17.6800 C   0  0  0  0  0  0  0  0  0  0  0  0
   14.6820   58.2950   16.7550 C   0  0  0  0  0  0  0  0  0  0  0  0
   14.9970   58.3590   15.4270 C   0  0  0  0  0  0  0  0  0  0  0  0
   16.3100   58.2440   15.0190 C   0  0  0  0  0  0  0  0  0  0  0  0
   17.3040   58.0630   15.9440 C   0  0  0  0  0  0  0  0  0  0  0  0
   18.6434   55.9351   19.3979 H   0  0  0  0  0  0  0  0  0  0  0  0
   17.7998   55.6238   17.8429 H   0  0  0  0  0  0  0  0  0  0  0  0
   19.5131   56.1634   17.8429 H   0  0  0  0  0  0  0  0  0  0  0  0
   17.6950   57.9962   19.3019 H   0  0  0  0  0  0  0  0  0  0  0  0
   18.9522   58.3274   18.0162 H   0  0  0  0  0  0  0  0  0  0  0  0
   15.4197   58.0645   18.7484 H   0  0  0  0  0  0  0  0  0  0  0  0
   13.6354   58.3890   17.0801 H   0  0  0  0  0  0  0  0  0  0  0  0
   14.2015   58.5026   14.6810 H   0  0  0  0  0  0  0  0  0  0  0  0
   16.5591   58.2978   13.9489 H   0  0  0  0  0  0  0  0  0  0  0  0
   18.3493   57.9759   15.6127 H   0  0  0  0  0  0  0  0  0  0  0  0
  1  2  1  0
  2  3  2  0
  2  4  1  0
  4  5  1  0
  5  6  2  0
  6  7  1  0
  7  8  2  0
  8  9  1  0
  8 10  1  0
 10 11  1  0
 11 12  1  0
 12 13  2  0
 13 14  1  0
 14 15  2  0
 15 16  1  0
 16 17  1  0
 17 18  2  0
 18 19  1  0
 19 20  2  0
 20 21  1  0
 21 22  2  0
 16 23  2  0
 10 24  2  0
 24  5  1  0
 23 12  1  0
 22 17  1  0
  1 25  1  0
  1 26  1  0
  1 27  1  0
  4 28  1  0
  6 29  1  0
  7 30  1  0
  9 31  1  0
  9 32  1  0
  9 33  1  0
 11 34  1  0
 14 35  1  0
 15 36  1  0
 18 37  1  0
 19 38  1  0
 20 39  1  0
 22 40  1  0
 24 41  1  0
 42 43  1  0
 43 44  1  0
 44 45  2  0
 45 46  1  0
 46 47  2  0
 47 48  1  0
 48 49  2  0
 49 44  1  0
 42 50  1  0
 42 51  1  0
 42 52  1  0
 43 53  1  0
 43 54  1  0
 45 55  1  0
 46 56  1  0
 47 57  1  0
 48 58  1  0
 49 59  1  0
M  END
>  <meeko>  (5) 
{"is_sidechain": [false, true], "free_energy": -8.156, "intermolecular_energy": -9.103, "internal_energy": -4.391}

$$$$

     RDKit          3D

 59 61  0  0  0  0  0  0  0  0999 V2000
   21.5190   50.5970   25.3400 C   0  0  0  0  0  0  0  0  0  0  0  0
   21.4340   49.6280   24.2060 C   0  0  0  0  0  0  0  0  0  0  0  0
   22.1770   48.6090   24.2090 O   0  0  0  0  0  0  0  0  0  0  0  0
   20.4490   49.8150   23.1790 N   0  0  0  0  0  0  0  0  0  0  0  0
   20.3980   49.0490   21.9620 C   0  0  0  0  0  0  0  0  0  0  0  0
   21.2010   49.3740   20.8580 C   0  0  0  0  0  0  0  0  0  0  0  0
   21.1080   48.6380   19.6760 C   0  0  0  0  0  0  0  0  0  0  0  0
   20.2120   47.5630   19.5720 C   0  0  0  0  0  0  0  0  0  0  0  0
   20.1300   46.7880   18.2850 C   0  0  0  0  0  0  0  0  0  0  0  0
   19.3850   47.2390   20.6710 C   0  0  0  0  0  0  0  0  0  0  0  0
   18.4160   46.1800   20.5700 N   0  0  0  0  0  0  0  0  0  0  0  0
   17.0010   46.4020   20.4920 C   0  0  0  0  0  0  0  0  0  0  0  0
   16.1390   45.6680   21.2450 N   0  0  0  0  0  0  0  0  0  0  0  0
   14.7980   45.8540   21.1540 C   0  0  0  0  0  0  0  0  0  0  0  0
   14.2840   46.8060   20.2750 C   0  0  0  0  0  0  0  0  0  0  0  0
   15.1780   47.5590   19.4980 C   0  0  0  0  0  0  0  0  0  0  0  0
   14.7060   48.5840   18.5300 C   0  0  0  0  0  0  0  0  0  0  0  0
   13.3370   48.8460   18.3370 C   0  0  0  0  0  0  0  0  0  0  0  0
   12.9290   49.8210   17.4260 C   0  0  0  0  0  0  0  0  0  0  0  0
   13.8910   50.5370   16.7130 C   0  0  0  0  0  0  0  0  0  0  0  0
   15.2120   50.2850   16.9120 N   0  0  0  0  0  0  0  0  0  0  0  0
   15.6360   49.3410   17.7940 C   0  0  0  0  0  0  0  0  0  0  0  0
   16.5150   47.3260   19.6220 N   0  0  0  0  0  0  0  0  0  0  0  0
   19.4760   48.0000   21.8500 C   0  0  0  0  0  0  0  0  0  0  0  0
   21.4711   50.0507   26.2935 H   0  0  0  0  0  0  0  0  0  0  0  0
   22.4690   51.1484   25.2807 H   0  0  0  0  0  0  0  0  0  0  0  0
   20.6795   51.3054   25.2807 H   0  0  0  0  0  0  0  0  0  0  0  0
   19.6750   50.4910   23.3680 H   0  0  0  0  0  0  0  0  0  0  0  0
   21.9081   50.2140   20.9247 H   0  0  0  0  0  0  0  0  0  0  0  0
   21.7430   48.9030   18.8178 H   0  0  0  0  0  0  0  0  0  0  0  0
   20.0167   45.7169   18.5085 H   0  0  0  0  0  0  0  0  0  0  0  0
   19.2635   47.1347   17.7028 H   0  0  0  0  0  0  0  0  0  0  0  0
   21.0498   46.9457   17.7028 H   0  0  0  0  0  0  0  0  0  0  0  0
   18.7490   45.1900   20.6090 H   0  0  0  0  0  0  0  0  0  0  0  0
   14.1163   45.2534   21.7741 H   0  0  0  0  0  0  0  0  0  0  0  0
   13.1986   46.9641   20.1919 H   0  0  0  0  0  0  0  0  0  0  0  0
   12.5854   48.2799   18.9066 H   0  0  0  0  0  0  0  0  0  0  0  0
   11.8589   50.0232   17.2714 H   0  0  0  0  0  0  0  0  0  0  0  0
   13.5806   51.3055   15.9898 H   0  0  0  0  0  0  0  0  0  0  0  0
   16.7134   49.1680   17.9331 H   0  0  0  0  0  0  0  0  0  0  0  0
   18.8134   47.7683   22.6969 H   0  0  0  0  0  0  0  0  0  0  0  0
   18.5420   56.2570   18.3510 C   0  0  0  0  0  0  0  0  0  0  0  0
   18.0800   57.7240   18.3080 C   0  0  0  0  0  0  0  0  0  0  0  0
   16.9500   57.9740   17.3460 C   0  0  0  0  0  0  0  0  0  0  0  0
   17.1940   58.1290   15.9900 C   0  0  0  0  0  0  0  0  0  0  0  0
   16.1780   58.4160   15.1170 C   0  0  0  0  0  0  0  0  0  0  0  0
   14.9010   58.5500   15.5840 C   0  0  0  0  0  0  0  0  0  0  0  0
   14.6350   58.3950   16.9280 C   0  0  0  0  0  0  0  0  0  0  0  0
   15.6510   58.1070   17.8010 C   0  0  0  0  0  0  0  0  0  0  0  0
   18.6434   55.9351   19.3979 H   0  0  0  0  0  0  0  0  0  0  0  0
   17.7998   55.6238   17.8429 H   0  0  0  0  0  0  0  0  0  0  0  0
   19.5131   56.1634   17.8429 H   0  0  0  0  0  0  0  0  0  0  0  0
   17.7484   58.0134   19.3161 H   0  0  0  0  0  0  0  0  0  0  0  0
   18.9362   58.3208   17.9605 H   0  0  0  0  0  0  0  0  0  0  0  0
   18.2201   58.0198   15.6089 H   0  0  0  0  0  0  0  0  0  0  0  0
   16.3894   58.5381   14.0444 H   0  0  0  0  0  0  0  0  0  0  0  0
   14.0831   58.7821   14.8860 H   0  0  0  0  0  0  0  0  0  0  0  0
   13.6054   58.5027   17.3000 H   0  0  0  0  0  0  0  0  0  0  0  0
   15.4318   57.9807   18.8715 H   0  0  0  0  0  0  0  0  0  0  0  0
  1  2  1  0
  2  3  2  0
  2  4  1  0
  4  5  1  0
  5  6  2  0
  6  7  1  0
  7  8  2  0
  8  9  1  0
  8 10  1  0
 10 11  1  0
 11 12  1  0
 12 13  2  0
 13 14  1  0
 14 15  2  0
 15 16  1  0
 16 17  1  0
 17 18  2  0
 18 19  1  0
 19 20  2  0
 20 21  1  0
 21 22  2  0
 16 23  2  0
 10 24  2  0
 24  5  1  0
 23 12  1  0
 22 17  1  0
  1 25  1  0
  1 26  1  0
  1 27  1  0
  4 28  1  0
  6 29  1  0
  7 30  1  0
  9 31  1  0
  9 32  1  0
  9 33  1  0
 11 34  1  0
 14 35  1  0
 15 36  1  0
 18 37  1  0
 19 38  1  0
 20 39  1  0
 22 40  1  0
 24 41  1  0
 42 43  1  0
 43 44  1  0
 44 45  2  0
 45 46  1  0
 46 47  2  0
 47 48  1  0
 48 49  2  0
 49 44  1  0
 42 50  1  0
 42 51  1  0
 42 52  1  0
 43 53  1  0
 43 54  1  0
 45 55  1  0
 46 56  1  0
 47 57  1  0
 48 58  1  0
 49 59  1  0
M  END
>  <meeko>  (6) 
{"is_sidechain": [false, true], "free_energy": -7.985, "intermolecular_energy": -8.813, "internal_energy": -4.47}

$$$$

     RDKit          3D

 59 61  0  0  0  0  0  0  0  0999 V2000
   17.8830   41.0400   22.8440 C   0  0  0  0  0  0  0  0  0  0  0  0
   18.2600   42.4350   23.2210 C   0  0  0  0  0  0  0  0  0  0  0  0
   17.8930   42.8940   24.3370 O   0  0  0  0  0  0  0  0  0  0  0  0
   19.1110   43.2040   22.3560 N   0  0  0  0  0  0  0  0  0  0  0  0
   19.3890   44.6040   22.5350 C   0  0  0  0  0  0  0  0  0  0  0  0
   20.4400   45.0430   23.3540 C   0  0  0  0  0  0  0  0  0  0  0  0
   20.6680   46.4070   23.5410 C   0  0  0  0  0  0  0  0  0  0  0  0
   19.8510   47.3610   22.9130 C   0  0  0  0  0  0  0  0  0  0  0  0
   20.1180   48.8250   23.1350 C   0  0  0  0  0  0  0  0  0  0  0  0
   18.7770   46.9300   22.1020 C   0  0  0  0  0  0  0  0  0  0  0  0
   17.8890   47.8860   21.4970 N   0  0  0  0  0  0  0  0  0  0  0  0
   17.6900   48.0010   20.0810 C   0  0  0  0  0  0  0  0  0  0  0  0
   18.7190   47.7960   19.2150 N   0  0  0  0  0  0  0  0  0  0  0  0
   18.5430   47.9300   17.8760 C   0  0  0  0  0  0  0  0  0  0  0  0
   17.2940   48.2880   17.3700 C   0  0  0  0  0  0  0  0  0  0  0  0
   16.2370   48.5010   18.2680 C   0  0  0  0  0  0  0  0  0  0  0  0
   14.8810   48.8960   17.8040 C   0  0  0  0  0  0  0  0  0  0  0  0
   14.3920   48.5220   16.5390 C   0  0  0  0  0  0  0  0  0  0  0  0
   13.1110   48.9030   16.1390 C   0  0  0  0  0  0  0  0  0  0  0  0
   12.3180   49.6540   17.0070 C   0  0  0  0  0  0  0  0  0  0  0  0
   12.7930   50.0030   18.2310 N   0  0  0  0  0  0  0  0  0  0  0  0
   14.0370   49.6440   18.6450 C   0  0  0  0  0  0  0  0  0  0  0  0
   16.4700   48.3610   19.6030 N   0  0  0  0  0  0  0  0  0  0  0  0
   18.5480   45.5530   21.9370 C   0  0  0  0  0  0  0  0  0  0  0  0
   17.7221   40.4448   23.7549 H   0  0  0  0  0  0  0  0  0  0  0  0
   16.9575   41.0582   22.2497 H   0  0  0  0  0  0  0  0  0  0  0  0
   18.6916   40.5895   22.2497 H   0  0  0  0  0  0  0  0  0  0  0  0
   19.6230   42.6920   21.6020 H   0  0  0  0  0  0  0  0  0  0  0  0
   21.0886   44.3073   23.8520 H   0  0  0  0  0  0  0  0  0  0  0  0
   21.4952   46.7379   24.1862 H   0  0  0  0  0  0  0  0  0  0  0  0
   20.1556   49.0312   24.2148 H   0  0  0  0  0  0  0  0  0  0  0  0
   21.0804   49.0959   22.6762 H   0  0  0  0  0  0  0  0  0  0  0  0
   19.3132   49.4182   22.6762 H   0  0  0  0  0  0  0  0  0  0  0  0
   17.3980   48.5750   22.1110 H   0  0  0  0  0  0  0  0  0  0  0  0
   19.3853   47.7563   17.1902 H   0  0  0  0  0  0  0  0  0  0  0  0
   17.1401   48.4014   16.2867 H   0  0  0  0  0  0  0  0  0  0  0  0
   15.0225   47.9265   15.8623 H   0  0  0  0  0  0  0  0  0  0  0  0
   12.7298   48.6140   15.1485 H   0  0  0  0  0  0  0  0  0  0  0  0
   11.3080   49.9636   16.7003 H   0  0  0  0  0  0  0  0  0  0  0  0
   14.3863   49.9406   19.6450 H   0  0  0  0  0  0  0  0  0  0  0  0
   17.6958   45.2148   21.3293 H   0  0  0  0  0  0  0  0  0  0  0  0
   18.5420   56.2570   18.3510 C   0  0  0  0  0  0  0  0  0  0  0  0
   18.0800   57.7240   18.3080 C   0  0  0  0  0  0  0  0  0  0  0  0
   17.0030   57.9900   17.2900 C   0  0  0  0  0  0  0  0  0  0  0  0
   15.6740   58.0810   17.6720 C   0  0  0  0  0  0  0  0  0  0  0  0
   14.6820   58.2630   16.7440 C   0  0  0  0  0  0  0  0  0  0  0  0
   15.0040   58.3600   15.4200 C   0  0  0  0  0  0  0  0  0  0  0  0
   16.3210   58.2780   15.0190 C   0  0  0  0  0  0  0  0  0  0  0  0
   17.3120   58.0960   15.9470 C   0  0  0  0  0  0  0  0  0  0  0  0
   18.6434   55.9351   19.3979 H   0  0  0  0  0  0  0  0  0  0  0  0
   17.7998   55.6238   17.8429 H   0  0  0  0  0  0  0  0  0  0  0  0
   19.5131   56.1634   17.8429 H   0  0  0  0  0  0  0  0  0  0  0  0
   17.6935   57.9956   19.3014 H   0  0  0  0  0  0  0  0  0  0  0  0
   18.9527   58.3274   18.0177 H   0  0  0  0  0  0  0  0  0  0  0  0
   15.4110   58.0059   18.7374 H   0  0  0  0  0  0  0  0  0  0  0  0
   13.6317   58.3306   17.0638 H   0  0  0  0  0  0  0  0  0  0  0  0
   14.2107   58.5039   14.6717 H   0  0  0  0  0  0  0  0  0  0  0  0
   16.5761   58.3589   13.9520 H   0  0  0  0  0  0  0  0  0  0  0  0
   18.3608   58.0338   15.6212 H   0  0  0  0  0  0  0  0  0  0  0  0
  1  2  1  0
  2  3  2  0
  2  4  1  0
  4  5  1  0
  5  6  2  0
  6  7  1  0
  7  8  2  0
  8  9  1  0
  8 10  1  0
 10 11  1  0
 11 12  1  0
 12 13  2  0
 13 14  1  0
 14 15  2  0
 15 16  1  0
 16 17  1  0
 17 18  2  0
 18 19  1  0
 19 20  2  0
 20 21  1  0
 21 22  2  0
 16 23  2  0
 10 24  2  0
 24  5  1  0
 23 12  1  0
 22 17  1  0
  1 25  1  0
  1 26  1  0
  1 27  1  0
  4 28  1  0
  6 29  1  0
  7 30  1  0
  9 31  1  0
  9 32  1  0
  9 33  1  0
 11 34  1  0
 14 35  1  0
 15 36  1  0
 18 37  1  0
 19 38  1  0
 20 39  1  0
 22 40  1  0
 24 41  1  0
 42 43  1  0
 43 44  1  0
 44 45  2  0
 45 46  1  0
 46 47  2  0
 47 48  1  0
 48 49  2  0
 49 44  1  0
 42 50  1  0
 42 51  1  0
 42 52  1  0
 43 53  1  0
 43 54  1  0
 45 55  1  0
 46 56  1  0
 47 57  1  0
 48 58  1  0
 49 59  1  0
M  END
>  <meeko>  (7) 
{"is_sidechain": [false, true], "free_energy": -7.811, "intermolecular_energy": -8.714, "internal_energy": -4.354}

$$$$

     RDKit          3D

 59 61  0  0  0  0  0  0  0  0999 V2000
   20.9650   51.3410   23.5790 C   0  0  0  0  0  0  0  0  0  0  0  0
   20.8470   49.9750   22.9860 C   0  0  0  0  0  0  0  0  0  0  0  0
   21.5420   49.6790   21.9760 O   0  0  0  0  0  0  0  0  0  0  0  0
   20.0190   48.9890   23.6210 N   0  0  0  0  0  0  0  0  0  0  0  0
   19.6980   47.7110   23.0420 C   0  0  0  0  0  0  0  0  0  0  0  0
   20.4860   46.5770   23.2880 C   0  0  0  0  0  0  0  0  0  0  0  0
   20.1760   45.3570   22.6860 C   0  0  0  0  0  0  0  0  0  0  0  0
   19.0720   45.2450   21.8270 C   0  0  0  0  0  0  0  0  0  0  0  0
   18.7620   43.9170   21.1900 C   0  0  0  0  0  0  0  0  0  0  0  0
   18.2820   46.3840   21.5570 C   0  0  0  0  0  0  0  0  0  0  0  0
   17.1810   46.3100   20.6330 N   0  0  0  0  0  0  0  0  0  0  0  0
   17.1170   47.0570   19.4110 C   0  0  0  0  0  0  0  0  0  0  0  0
   18.2520   47.4020   18.7460 N   0  0  0  0  0  0  0  0  0  0  0  0
   18.1980   48.1330   17.6040 C   0  0  0  0  0  0  0  0  0  0  0  0
   16.9670   48.5460   17.0980 C   0  0  0  0  0  0  0  0  0  0  0  0
   15.7990   48.1890   17.7890 C   0  0  0  0  0  0  0  0  0  0  0  0
   14.4510   48.6020   17.3170 C   0  0  0  0  0  0  0  0  0  0  0  0
   13.9350   48.1730   16.0810 C   0  0  0  0  0  0  0  0  0  0  0  0
   12.6620   48.5740   15.6730 C   0  0  0  0  0  0  0  0  0  0  0  0
   11.9040   49.3980   16.5050 C   0  0  0  0  0  0  0  0  0  0  0  0
   12.4050   49.7990   17.7030 N   0  0  0  0  0  0  0  0  0  0  0  0
   13.6420   49.4230   18.1240 C   0  0  0  0  0  0  0  0  0  0  0  0
   15.9100   47.4610   18.9350 N   0  0  0  0  0  0  0  0  0  0  0  0
   18.6160   47.6120   22.1560 C   0  0  0  0  0  0  0  0  0  0  0  0
   20.9585   51.2661   24.6764 H   0  0  0  0  0  0  0  0  0  0  0  0
   21.9065   51.8041   23.2486 H   0  0  0  0  0  0  0  0  0  0  0  0
   20.1169   51.9587   23.2486 H   0  0  0  0  0  0  0  0  0  0  0  0
   19.7020   49.1800   24.5980 H   0  0  0  0  0  0  0  0  0  0  0  0
   21.3539   46.6499   23.9598 H   0  0  0  0  0  0  0  0  0  0  0  0
   20.8025   44.4753   22.8865 H   0  0  0  0  0  0  0  0  0  0  0  0
   18.5867   43.1661   21.9745 H   0  0  0  0  0  0  0  0  0  0  0  0
   17.8617   44.0114   20.5650 H   0  0  0  0  0  0  0  0  0  0  0  0
   19.6110   43.6030   20.5650 H   0  0  0  0  0  0  0  0  0  0  0  0
   16.3540   45.7220   20.8850 H   0  0  0  0  0  0  0  0  0  0  0  0
   19.1263   48.3997   17.0775 H   0  0  0  0  0  0  0  0  0  0  0  0
   16.9119   49.1407   16.1743 H   0  0  0  0  0  0  0  0  0  0  0  0
   14.5371   47.5188   15.4333 H   0  0  0  0  0  0  0  0  0  0  0  0
   12.2600   48.2432   14.7040 H   0  0  0  0  0  0  0  0  0  0  0  0
   10.9010   49.7231   16.1915 H   0  0  0  0  0  0  0  0  0  0  0  0
   14.0128   49.7630   19.1022 H   0  0  0  0  0  0  0  0  0  0  0  0
   18.0198   48.5074   21.9260 H   0  0  0  0  0  0  0  0  0  0  0  0
   18.5420   56.2570   18.3510 C   0  0  0  0  0  0  0  0  0  0  0  0
   18.0800   57.7240   18.3080 C   0  0  0  0  0  0  0  0  0  0  0  0
   16.9880   57.9850   17.3050 C   0  0  0  0  0  0  0  0  0  0  0  0
   17.2810   58.1170   15.9570 C   0  0  0  0  0  0  0  0  0  0  0  0
   16.3010   58.4140   15.0460 C   0  0  0  0  0  0  0  0  0  0  0  0
   15.0120   58.5810   15.4690 C   0  0  0  0  0  0  0  0  0  0  0  0
   14.6980   58.4480   16.8050 C   0  0  0  0  0  0  0  0  0  0  0  0
   15.6780   58.1510   17.7150 C   0  0  0  0  0  0  0  0  0  0  0  0
   18.6434   55.9351   19.3979 H   0  0  0  0  0  0  0  0  0  0  0  0
   17.7998   55.6238   17.8429 H   0  0  0  0  0  0  0  0  0  0  0  0
   19.5131   56.1634   17.8429 H   0  0  0  0  0  0  0  0  0  0  0  0
   17.7086   58.0006   19.3058 H   0  0  0  0  0  0  0  0  0  0  0  0
   18.9484   58.3259   18.0020 H   0  0  0  0  0  0  0  0  0  0  0  0
   18.3168   57.9812   15.6126 H   0  0  0  0  0  0  0  0  0  0  0  0
   16.5506   58.5175   13.9797 H   0  0  0  0  0  0  0  0  0  0  0  0
   14.2229   58.8222   14.7415 H   0  0  0  0  0  0  0  0  0  0  0  0
   13.6589   58.5806   17.1407 H   0  0  0  0  0  0  0  0  0  0  0  0
   15.4209   58.0439   18.7792 H   0  0  0  0  0  0  0  0  0  0  0  0
  1  2  1  0
  2  3  2  0
  2  4  1  0
  4  5  1  0
  5  6  2  0
  6  7  1  0
  7  8  2  0
  8  9  1  0
  8 10  1  0
 10 11  1  0
 11 12  1  0
 12 13  2  0
 13 14  1  0
 14 15  2  0
 15 16  1  0
 16 17  1  0
 17 18  2  0
 18 19  1  0
 19 20  2  0
 20 21  1  0
 21 22  2  0
 16 23  2  0
 10 24  2  0
 24  5  1  0
 23 12  1  0
 22 17  1  0
  1 25  1  0
  1 26  1  0
  1 27  1  0
  4 28  1  0
  6 29  1  0
  7 30  1  0
  9 31  1  0
  9 32  1  0
  9 33  1  0
 11 34  1  0
 14 35  1  0
 15 36  1  0
 18 37  1  0
 19 38  1  0
 20 39  1  0
 22 40  1  0
 24 41  1  0
 42 43  1  0
 43 44  1  0
 44 45  2  0
 45 46  1  0
 46 47  2  0
 47 48  1  0
 48 49  2  0
 49 44  1  0
 42 50  1  0
 42 51  1  0
 42 52  1  0
 43 53  1  0
 43 54  1  0
 45 55  1  0
 46 56  1  0
 47 57  1  0
 48 58  1  0
 49 59  1  0
M  END
>  <meeko>  (8) 
{"is_sidechain": [false, true], "free_energy": -7.712, "intermolecular_energy": -8.663, "internal_energy": -4.284}

$$$$

     RDKit          3D

 59 61  0  0  0  0  0  0  0  0999 V2000
   20.6940   53.5830   23.7400 C   0  0  0  0  0  0  0  0  0  0  0  0
   20.6200   52.1010   23.5640 C   0  0  0  0  0  0  0  0  0  0  0  0
   20.0130   51.4080   24.4250 O   0  0  0  0  0  0  0  0  0  0  0  0
   21.1540   51.4950   22.3780 N   0  0  0  0  0  0  0  0  0  0  0  0
   21.2910   50.0750   22.1900 C   0  0  0  0  0  0  0  0  0  0  0  0
   22.5240   49.4290   22.3640 C   0  0  0  0  0  0  0  0  0  0  0  0
   22.6410   48.0570   22.1410 C   0  0  0  0  0  0  0  0  0  0  0  0
   21.5280   47.3010   21.7400 C   0  0  0  0  0  0  0  0  0  0  0  0
   21.6830   45.8230   21.5050 C   0  0  0  0  0  0  0  0  0  0  0  0
   20.2850   47.9440   21.5430 C   0  0  0  0  0  0  0  0  0  0  0  0
   19.1440   47.2020   21.0760 N   0  0  0  0  0  0  0  0  0  0  0  0
   18.4870   47.4600   19.8270 C   0  0  0  0  0  0  0  0  0  0  0  0
   19.1470   47.3030   18.6480 N   0  0  0  0  0  0  0  0  0  0  0  0
   18.5380   47.5720   17.4660 C   0  0  0  0  0  0  0  0  0  0  0  0
   17.2180   48.0210   17.4470 C   0  0  0  0  0  0  0  0  0  0  0  0
   16.5430   48.1830   18.6660 C   0  0  0  0  0  0  0  0  0  0  0  0
   15.1390   48.6680   18.7270 C   0  0  0  0  0  0  0  0  0  0  0  0
   14.2020   48.1160   19.6190 C   0  0  0  0  0  0  0  0  0  0  0  0
   12.8940   48.6010   19.6550 C   0  0  0  0  0  0  0  0  0  0  0  0
   12.5270   49.6430   18.8030 C   0  0  0  0  0  0  0  0  0  0  0  0
   13.4410   50.1790   17.9520 N   0  0  0  0  0  0  0  0  0  0  0  0
   14.7210   49.7250   17.8970 C   0  0  0  0  0  0  0  0  0  0  0  0
   17.2040   47.9070   19.8250 N   0  0  0  0  0  0  0  0  0  0  0  0
   20.1860   49.3300   21.7550 C   0  0  0  0  0  0  0  0  0  0  0  0
   20.7061   53.8247   24.8131 H   0  0  0  0  0  0  0  0  0  0  0  0
   21.6122   53.9629   23.2683 H   0  0  0  0  0  0  0  0  0  0  0  0
   19.8182   54.0525   23.2683 H   0  0  0  0  0  0  0  0  0  0  0  0
   21.3750   52.1220   21.5720 H   0  0  0  0  0  0  0  0  0  0  0  0
   23.4046   50.0083   22.6784 H   0  0  0  0  0  0  0  0  0  0  0  0
   23.6139   47.5630   22.2806 H   0  0  0  0  0  0  0  0  0  0  0  0
   21.7377   45.3017   22.4721 H   0  0  0  0  0  0  0  0  0  0  0  0
   20.8191   45.4497   20.9355 H   0  0  0  0  0  0  0  0  0  0  0  0
   22.6056   45.6370   20.9355 H   0  0  0  0  0  0  0  0  0  0  0  0
   18.7330   46.4700   21.6970 H   0  0  0  0  0  0  0  0  0  0  0  0
   19.0859   47.4358   16.5219 H   0  0  0  0  0  0  0  0  0  0  0  0
   16.7155   48.2439   16.4942 H   0  0  0  0  0  0  0  0  0  0  0  0
   14.5016   47.2984   20.2912 H   0  0  0  0  0  0  0  0  0  0  0  0
   12.1594   48.1659   20.3485 H   0  0  0  0  0  0  0  0  0  0  0  0
   11.4978   50.0308   18.8200 H   0  0  0  0  0  0  0  0  0  0  0  0
   15.4349   50.1868   17.1991 H   0  0  0  0  0  0  0  0  0  0  0  0
   19.2267   49.8379   21.5768 H   0  0  0  0  0  0  0  0  0  0  0  0
   18.5420   56.2570   18.3510 C   0  0  0  0  0  0  0  0  0  0  0  0
   18.0800   57.7240   18.3080 C   0  0  0  0  0  0  0  0  0  0  0  0
   16.9770   57.9820   17.3170 C   0  0  0  0  0  0  0  0  0  0  0  0
   17.2580   58.1460   15.9700 C   0  0  0  0  0  0  0  0  0  0  0  0
   16.2670   58.4400   15.0710 C   0  0  0  0  0  0  0  0  0  0  0  0
   14.9780   58.5720   15.5030 C   0  0  0  0  0  0  0  0  0  0  0  0
   14.6750   58.4070   16.8390 C   0  0  0  0  0  0  0  0  0  0  0  0
   15.6660   58.1120   17.7380 C   0  0  0  0  0  0  0  0  0  0  0  0
   18.6434   55.9351   19.3979 H   0  0  0  0  0  0  0  0  0  0  0  0
   17.7998   55.6238   17.8429 H   0  0  0  0  0  0  0  0  0  0  0  0
   19.5131   56.1634   17.8429 H   0  0  0  0  0  0  0  0  0  0  0  0
   17.7201   58.0043   19.3090 H   0  0  0  0  0  0  0  0  0  0  0  0
   18.9451   58.3243   17.9898 H   0  0  0  0  0  0  0  0  0  0  0  0
   18.2941   58.0383   15.6167 H   0  0  0  0  0  0  0  0  0  0  0  0
   16.5084   58.5692   14.0056 H   0  0  0  0  0  0  0  0  0  0  0  0
   14.1799   58.8103   14.7845 H   0  0  0  0  0  0  0  0  0  0  0  0
   13.6355   58.5125   17.1831 H   0  0  0  0  0  0  0  0  0  0  0  0
   15.4174   57.9777   18.8011 H   0  0  0  0  0  0  0  0  0  0  0  0
  1  2  1  0
  2  3  2  0
  2  4  1  0
  4  5  1  0
  5  6  2  0
  6  7  1  0
  7  8  2  0
  8  9  1  0
  8 10  1  0
 10 11  1  0
 11 12  1  0
 12 13  2  0
 13 14  1  0
 14 15  2  0
 15 16  1  0
 16 17  1  0
 17 18  2  0
 18 19  1  0
 19 20  2  0
 20 21  1  0
 21 22  2  0
 16 23  2  0
 10 24  2  0
 24  5  1  0
 23 12  1  0
 22 17  1  0
  1 25  1  0
  1 26  1  0
  1 27  1  0
  4 28  1  0
  6 29  1  0
  7 30  1  0
  9 31  1  0
  9 32  1  0
  9 33  1  0
 11 34  1  0
 14 35  1  0
 15 36  1  0
 18 37  1  0
 19 38  1  0
 20 39  1  0
 22 40  1  0
 24 41  1  0
 42 43  1  0
 43 44  1  0
 44 45  2  0
 45 46  1  0
 46 47  2  0
 47 48  1  0
 48 49  2  0
 49 44  1  0
 42 50  1  0
 42 51  1  0
 42 52  1  0
 43 53  1  0
 43 54  1  0
 45 55  1  0
 46 56  1  0
 47 57  1  0
 48 58  1  0
 49 59  1  0
M  END
>  <meeko>  (9) 
{"is_sidechain": [false, true], "free_energy": -7.384, "intermolecular_energy": -8.22, "internal_energy": -4.322}

$$$$
