
     RDKit          3D

 59 61  0  0  0  0  0  0  0  0999 V2000
   15.7370   51.1460   16.7840 C   0  0  0  0  0  0  0  0  0  0  0  0
   15.7660   52.1620   15.6890 C   0  0  0  0  0  0  0  0  0  0  0  0
   15.0520   53.1960   15.7890 O   0  0  0  0  0  0  0  0  0  0  0  0
   16.6710   51.9980   14.5860 N   0  0  0  0  0  0  0  0  0  0  0  0
   16.6560   52.8160   13.4030 C   0  0  0  0  0  0  0  0  0  0  0  0
   17.6480   52.6970   12.4180 C   0  0  0  0  0  0  0  0  0  0  0  0
   17.6330   53.5270   11.2960 C   0  0  0  0  0  0  0  0  0  0  0  0
   16.6260   54.4920   11.1350 C   0  0  0  0  0  0  0  0  0  0  0  0
   16.6350   55.3750    9.9160 C   0  0  0  0  0  0  0  0  0  0  0  0
   15.6330   54.6340   12.1290 C   0  0  0  0  0  0  0  0  0  0  0  0
   14.6260   55.6550   12.0170 N   0  0  0  0  0  0  0  0  0  0  0  0
   14.7750   56.9800   12.5440 C   0  0  0  0  0  0  0  0  0  0  0  0
   15.7740   57.2730   13.4200 N   0  0  0  0  0  0  0  0  0  0  0  0
   15.9040   58.5180   13.9420 C   0  0  0  0  0  0  0  0  0  0  0  0
   15.0020   59.5200   13.5880 C   0  0  0  0  0  0  0  0  0  0  0  0
   13.9710   59.2130   12.6860 C   0  0  0  0  0  0  0  0  0  0  0  0
   12.9650   60.2250   12.2690 C   0  0  0  0  0  0  0  0  0  0  0  0
   12.9670   61.5300   12.7920 C   0  0  0  0  0  0  0  0  0  0  0  0
   12.0120   62.4580   12.3730 C   0  0  0  0  0  0  0  0  0  0  0  0
   11.0600   62.0790   11.4260 C   0  0  0  0  0  0  0  0  0  0  0  0
   11.0720   60.8190   10.9170 N   0  0  0  0  0  0  0  0  0  0  0  0
   11.9910   59.8970   11.3090 C   0  0  0  0  0  0  0  0  0  0  0  0
   13.8820   57.9440   12.1970 N   0  0  0  0  0  0  0  0  0  0  0  0
   15.6710   53.8030   13.2630 C   0  0  0  0  0  0  0  0  0  0  0  0
   15.7516   51.6564   17.7583 H   0  0  0  0  0  0  0  0  0  0  0  0
   14.8213   50.5424   16.7000 H   0  0  0  0  0  0  0  0  0  0  0  0
   16.6168   50.4911   16.7000 H   0  0  0  0  0  0  0  0  0  0  0  0
   17.4390   51.2970   14.6910 H   0  0  0  0  0  0  0  0  0  0  0  0
   18.4426   51.9448   12.5307 H   0  0  0  0  0  0  0  0  0  0  0  0
   18.4169   53.4242   10.5312 H   0  0  0  0  0  0  0  0  0  0  0  0
   16.6458   56.4299   10.2275 H   0  0  0  0  0  0  0  0  0  0  0  0
   17.5310   55.1610    9.3149 H   0  0  0  0  0  0  0  0  0  0  0  0
   15.7348   55.1793    9.3149 H   0  0  0  0  0  0  0  0  0  0  0  0
   13.7100   55.4100   11.5770 H   0  0  0  0  0  0  0  0  0  0  0  0
   16.7214   58.7371   14.6448 H   0  0  0  0  0  0  0  0  0  0  0  0
   15.0963   60.5324   14.0076 H   0  0  0  0  0  0  0  0  0  0  0  0
   13.7244   61.8211   13.5347 H   0  0  0  0  0  0  0  0  0  0  0  0
   12.0100   63.4778   12.7853 H   0  0  0  0  0  0  0  0  0  0  0  0
   10.2997   62.8001   11.0914 H   0  0  0  0  0  0  0  0  0  0  0  0
   11.9726   58.8876   10.8723 H   0  0  0  0  0  0  0  0  0  0  0  0
   14.9156   53.9298   14.0525 H   0  0  0  0  0  0  0  0  0  0  0  0
   18.5420   56.2570   18.3510 C   0  0  0  0  0  0  0  0  0  0  0  0
   18.0800   57.7240   18.3080 C   0  0  0  0  0  0  0  0  0  0  0  0
   16.6260   57.8900   17.9580 C   0  0  0  0  0  0  0  0  0  0  0  0
   15.8120   58.7380   18.6930 C   0  0  0  0  0  0  0  0  0  0  0  0
   14.4740   58.8490   18.4170 C   0  0  0  0  0  0  0  0  0  0  0  0
   13.9290   58.1170   17.4000 C   0  0  0  0  0  0  0  0  0  0  0  0
   14.7220   57.2720   16.6520 C   0  0  0  0  0  0  0  0  0  0  0  0
   16.0600   57.1610   16.9270 C   0  0  0  0  0  0  0  0  0  0  0  0
   18.6434   55.9351   19.3979 H   0  0  0  0  0  0  0  0  0  0  0  0
   17.7998   55.6238   17.8429 H   0  0  0  0  0  0  0  0  0  0  0  0
   19.5131   56.1634   17.8429 H   0  0  0  0  0  0  0  0  0  0  0  0
   18.2522   58.1715   19.2980 H   0  0  0  0  0  0  0  0  0  0  0  0
   18.6601   58.2207   17.5163 H   0  0  0  0  0  0  0  0  0  0  0  0
   16.2469   59.3313   19.5108 H   0  0  0  0  0  0  0  0  0  0  0  0
   13.8416   59.5245   19.0117 H   0  0  0  0  0  0  0  0  0  0  0  0
   12.8551   58.2019   17.1773 H   0  0  0  0  0  0  0  0  0  0  0  0
   14.2796   56.6859   15.8330 H   0  0  0  0  0  0  0  0  0  0  0  0
   16.6879   56.4882   16.3244 H   0  0  0  0  0  0  0  0  0  0  0  0
  1  2  1  0
  2  3  2  0
  2  4  1  0
  4  5  1  0
  5  6  2  0
  6  7  1  0
  7  8  2  0
  8  9  1  0
  8 10  1  0
 10 11  1  0
 11 12  1  0
 12 13  2  0
 13 14  1  0
 14 15  2  0
 15 16  1  0
 16 17  1  0
 17 18  2  0
 18 19  1  0
 19 20  2  0
 20 21  1  0
 21 22  2  0
 16 23  2  0
 10 24  2  0
 24  5  1  0
 23 12  1  0
 22 17  1  0
  1 25  1  0
  1 26  1  0
  1 27  1  0
  4 28  1  0
  6 29  1  0
  7 30  1  0
  9 31  1  0
  9 32  1  0
  9 33  1  0
 11 34  1  0
 14 35  1  0
 15 36  1  0
 18 37  1  0
 19 38  1  0
 20 39  1  0
 22 40  1  0
 24 41  1  0
 42 43  1  0
 43 44  1  0
 44 45  2  0
 45 46  1  0
 46 47  2  0
 47 48  1  0
 48 49  2  0
 49 44  1  0
 42 50  1  0
 42 51  1  0
 42 52  1  0
 43 53  1  0
 43 54  1  0
 45 55  1  0
 46 56  1  0
 47 57  1  0
 48 58  1  0
 49 59  1  0
M  END
>  <meeko>  (1) 
{"is_sidechain": [false, true], "free_energy": -10.333, "intermolecular_energy": -11.526, "internal_energy": -3.563}

$$$$

     RDKit          3D

 59 61  0  0  0  0  0  0  0  0999 V2000
    9.3020   65.5640   10.4050 C   0  0  0  0  0  0  0  0  0  0  0  0
   10.4080   64.7500   10.9920 C   0  0  0  0  0  0  0  0  0  0  0  0
   11.5770   65.2220   11.0150 O   0  0  0  0  0  0  0  0  0  0  0  0
   10.1160   63.4860   11.6070 N   0  0  0  0  0  0  0  0  0  0  0  0
   11.1180   62.5490   12.0420 C   0  0  0  0  0  0  0  0  0  0  0  0
   11.9340   62.8130   13.1520 C   0  0  0  0  0  0  0  0  0  0  0  0
   12.9240   61.9070   13.5330 C   0  0  0  0  0  0  0  0  0  0  0  0
   13.1190   60.7170   12.8130 C   0  0  0  0  0  0  0  0  0  0  0  0
   14.1950   59.7580   13.2440 C   0  0  0  0  0  0  0  0  0  0  0  0
   12.3160   60.4500   11.6820 C   0  0  0  0  0  0  0  0  0  0  0  0
   12.5340   59.2670   10.8920 N   0  0  0  0  0  0  0  0  0  0  0  0
   12.2850   57.9370   11.3670 C   0  0  0  0  0  0  0  0  0  0  0  0
   11.0680   57.3540   11.1950 N   0  0  0  0  0  0  0  0  0  0  0  0
   10.8180   56.1060   11.6670 C   0  0  0  0  0  0  0  0  0  0  0  0
   11.8130   55.4040   12.3440 C   0  0  0  0  0  0  0  0  0  0  0  0
   13.0670   56.0120   12.5210 C   0  0  0  0  0  0  0  0  0  0  0  0
   14.1740   55.3300   13.2420 C   0  0  0  0  0  0  0  0  0  0  0  0
   15.3940   55.0290   12.6110 C   0  0  0  0  0  0  0  0  0  0  0  0
   16.4160   54.3960   13.3200 C   0  0  0  0  0  0  0  0  0  0  0  0
   16.2160   54.0700   14.6620 C   0  0  0  0  0  0  0  0  0  0  0  0
   15.0380   54.3730   15.2670 N   0  0  0  0  0  0  0  0  0  0  0  0
   14.0280   54.9900   14.5990 C   0  0  0  0  0  0  0  0  0  0  0  0
   13.2620   57.2690   12.0340 N   0  0  0  0  0  0  0  0  0  0  0  0
   11.3340   61.3810   11.2990 C   0  0  0  0  0  0  0  0  0  0  0  0
    8.7022   66.0055   11.2145 H   0  0  0  0  0  0  0  0  0  0  0  0
    9.7270   66.3664    9.7841 H   0  0  0  0  0  0  0  0  0  0  0  0
    8.6622   64.9197    9.7841 H   0  0  0  0  0  0  0  0  0  0  0  0
    9.1160   63.2750   11.8270 H   0  0  0  0  0  0  0  0  0  0  0  0
   11.7923   63.7407   13.7259 H   0  0  0  0  0  0  0  0  0  0  0  0
   13.5575   62.1266   14.4050 H   0  0  0  0  0  0  0  0  0  0  0  0
   14.2354   59.7220   14.3427 H   0  0  0  0  0  0  0  0  0  0  0  0
   13.9706   58.7549   12.8522 H   0  0  0  0  0  0  0  0  0  0  0  0
   15.1657   60.0959   12.8522 H   0  0  0  0  0  0  0  0  0  0  0  0
   12.9480   59.3710    9.9380 H   0  0  0  0  0  0  0  0  0  0  0  0
    9.8292   55.6487   11.5149 H   0  0  0  0  0  0  0  0  0  0  0  0
   11.6204   54.3931   12.7325 H   0  0  0  0  0  0  0  0  0  0  0  0
   15.5436   55.2936   11.5538 H   0  0  0  0  0  0  0  0  0  0  0  0
   17.3693   54.1566   12.8261 H   0  0  0  0  0  0  0  0  0  0  0  0
   17.0126   53.5674   15.2303 H   0  0  0  0  0  0  0  0  0  0  0  0
   13.0899   55.2251   15.1232 H   0  0  0  0  0  0  0  0  0  0  0  0
   10.7262   61.1893   10.4024 H   0  0  0  0  0  0  0  0  0  0  0  0
   18.5420   56.2570   18.3510 C   0  0  0  0  0  0  0  0  0  0  0  0
   18.0800   57.7240   18.3080 C   0  0  0  0  0  0  0  0  0  0  0  0
   16.7380   57.9170   17.6540 C   0  0  0  0  0  0  0  0  0  0  0  0
   15.5880   58.0390   18.4180 C   0  0  0  0  0  0  0  0  0  0  0  0
   14.3560   58.1550   17.8280 C   0  0  0  0  0  0  0  0  0  0  0  0
   14.2550   58.1540   16.4660 C   0  0  0  0  0  0  0  0  0  0  0  0
   15.3870   58.0390   15.6860 C   0  0  0  0  0  0  0  0  0  0  0  0
   16.6190   57.9230   16.2760 C   0  0  0  0  0  0  0  0  0  0  0  0
   18.6434   55.9351   19.3979 H   0  0  0  0  0  0  0  0  0  0  0  0
   17.7998   55.6238   17.8429 H   0  0  0  0  0  0  0  0  0  0  0  0
   19.5131   56.1634   17.8429 H   0  0  0  0  0  0  0  0  0  0  0  0
   18.0205   58.0997   19.3401 H   0  0  0  0  0  0  0  0  0  0  0  0
   18.8148   58.2748   17.7024 H   0  0  0  0  0  0  0  0  0  0  0  0
   15.6651   58.0428   19.5153 H   0  0  0  0  0  0  0  0  0  0  0  0
   13.4528   58.2485   18.4488 H   0  0  0  0  0  0  0  0  0  0  0  0
   13.2678   58.2452   15.9894 H   0  0  0  0  0  0  0  0  0  0  0  0
   15.3010   58.0404   14.5894 H   0  0  0  0  0  0  0  0  0  0  0  0
   17.5187   57.8341   15.6494 H   0  0  0  0  0  0  0  0  0  0  0  0
  1  2  1  0
  2  3  2  0
  2  4  1  0
  4  5  1  0
  5  6  2  0
  6  7  1  0
  7  8  2  0
  8  9  1  0
  8 10  1  0
 10 11  1  0
 11 12  1  0
 12 13  2  0
 13 14  1  0
 14 15  2  0
 15 16  1  0
 16 17  1  0
 17 18  2  0
 18 19  1  0
 19 20  2  0
 20 21  1  0
 21 22  2  0
 16 23  2  0
 10 24  2  0
 24  5  1  0
 23 12  1  0
 22 17  1  0
  1 25  1  0
  1 26  1  0
  1 27  1  0
  4 28  1  0
  6 29  1  0
  7 30  1  0
  9 31  1  0
  9 32  1  0
  9 33  1  0
 11 34  1  0
 14 35  1  0
 15 36  1  0
 18 37  1  0
 19 38  1  0
 20 39  1  0
 22 40  1  0
 24 41  1  0
 42 43  1  0
 43 44  1  0
 44 45  2  0
 45 46  1  0
 46 47  2  0
 47 48  1  0
 48 49  2  0
 49 44  1  0
 42 50  1  0
 42 51  1  0
 42 52  1  0
 43 53  1  0
 43 54  1  0
 45 55  1  0
 46 56  1  0
 47 57  1  0
 48 58  1  0
 49 59  1  0
M  END
>  <meeko>  (2) 
{"is_sidechain": [false, true], "free_energy": -9.133, "intermolecular_energy": -10.326, "internal_energy": -3.666}

$$$$

     RDKit          3D

 59 61  0  0  0  0  0  0  0  0999 V2000
    9.7870   64.4480   10.8230 C   0  0  0  0  0  0  0  0  0  0  0  0
   10.7530   63.6850   11.6680 C   0  0  0  0  0  0  0  0  0  0  0  0
   11.3870   64.2860   12.5780 O   0  0  0  0  0  0  0  0  0  0  0  0
   10.8830   62.2640   11.5010 N   0  0  0  0  0  0  0  0  0  0  0  0
   11.9000   61.4670   12.1340 C   0  0  0  0  0  0  0  0  0  0  0  0
   12.9370   62.0560   12.8720 C   0  0  0  0  0  0  0  0  0  0  0  0
   13.9330   61.2650   13.4460 C   0  0  0  0  0  0  0  0  0  0  0  0
   13.9130   59.8690   13.2950 C   0  0  0  0  0  0  0  0  0  0  0  0
   15.0010   59.0400   13.9230 C   0  0  0  0  0  0  0  0  0  0  0  0
   12.8840   59.2670   12.5370 C   0  0  0  0  0  0  0  0  0  0  0  0
   12.8730   57.8450   12.3170 N   0  0  0  0  0  0  0  0  0  0  0  0
   14.0610   57.0450   12.2320 C   0  0  0  0  0  0  0  0  0  0  0  0
   15.0090   57.3040   11.2920 N   0  0  0  0  0  0  0  0  0  0  0  0
   16.1210   56.5340   11.1900 C   0  0  0  0  0  0  0  0  0  0  0  0
   16.3020   55.4540   12.0520 C   0  0  0  0  0  0  0  0  0  0  0  0
   15.3200   55.1890   13.0190 C   0  0  0  0  0  0  0  0  0  0  0  0
   15.4390   54.0500   13.9660 C   0  0  0  0  0  0  0  0  0  0  0  0
   16.5090   53.1400   13.9010 C   0  0  0  0  0  0  0  0  0  0  0  0
   16.5930   52.0860   14.8120 C   0  0  0  0  0  0  0  0  0  0  0  0
   15.6090   51.9470   15.7900 C   0  0  0  0  0  0  0  0  0  0  0  0
   14.5830   52.8360   15.8530 N   0  0  0  0  0  0  0  0  0  0  0  0
   14.4780   53.8710   14.9790 C   0  0  0  0  0  0  0  0  0  0  0  0
   14.2190   55.9900   13.0730 N   0  0  0  0  0  0  0  0  0  0  0  0
   11.8970   60.0780   11.9490 C   0  0  0  0  0  0  0  0  0  0  0  0
    9.0892   64.9992   11.4705 H   0  0  0  0  0  0  0  0  0  0  0  0
   10.3368   65.1583   10.1880 H   0  0  0  0  0  0  0  0  0  0  0  0
    9.2234   63.7487   10.1880 H   0  0  0  0  0  0  0  0  0  0  0  0
   10.1400   61.7720   10.9540 H   0  0  0  0  0  0  0  0  0  0  0  0
   12.9654   63.1483   12.9991 H   0  0  0  0  0  0  0  0  0  0  0  0
   14.7412   61.7393   14.0220 H   0  0  0  0  0  0  0  0  0  0  0  0
   14.9219   59.1003   15.0185 H   0  0  0  0  0  0  0  0  0  0  0  0
   14.8938   57.9925   13.6047 H   0  0  0  0  0  0  0  0  0  0  0  0
   15.9825   59.4213   13.6047 H   0  0  0  0  0  0  0  0  0  0  0  0
   11.9570   57.3690   12.1550 H   0  0  0  0  0  0  0  0  0  0  0  0
   16.8798   56.7620   10.4270 H   0  0  0  0  0  0  0  0  0  0  0  0
   17.1982   54.8208   11.9758 H   0  0  0  0  0  0  0  0  0  0  0  0
   17.2832   53.2594   13.1288 H   0  0  0  0  0  0  0  0  0  0  0  0
   17.4277   51.3716   14.7589 H   0  0  0  0  0  0  0  0  0  0  0  0
   15.6631   51.1177   16.5106 H   0  0  0  0  0  0  0  0  0  0  0  0
   13.6362   54.5740   15.0636 H   0  0  0  0  0  0  0  0  0  0  0  0
   11.1108   59.6150   11.3346 H   0  0  0  0  0  0  0  0  0  0  0  0
   18.5420   56.2570   18.3510 C   0  0  0  0  0  0  0  0  0  0  0  0
   18.0800   57.7240   18.3080 C   0  0  0  0  0  0  0  0  0  0  0  0
   16.6280   57.8910   17.9470 C   0  0  0  0  0  0  0  0  0  0  0  0
   15.7990   58.7060   18.7030 C   0  0  0  0  0  0  0  0  0  0  0  0
   14.4640   58.8160   18.4160 C   0  0  0  0  0  0  0  0  0  0  0  0
   13.9360   58.1150   17.3680 C   0  0  0  0  0  0  0  0  0  0  0  0
   14.7440   57.3030   16.6000 C   0  0  0  0  0  0  0  0  0  0  0  0
   16.0800   57.1940   16.8860 C   0  0  0  0  0  0  0  0  0  0  0  0
   18.6434   55.9351   19.3979 H   0  0  0  0  0  0  0  0  0  0  0  0
   17.7998   55.6238   17.8429 H   0  0  0  0  0  0  0  0  0  0  0  0
   19.5131   56.1634   17.8429 H   0  0  0  0  0  0  0  0  0  0  0  0
   18.2445   58.1691   19.3004 H   0  0  0  0  0  0  0  0  0  0  0  0
   18.6660   58.2226   17.5219 H   0  0  0  0  0  0  0  0  0  0  0  0
   16.2200   59.2731   19.5464 H   0  0  0  0  0  0  0  0  0  0  0  0
   13.8196   59.4658   19.0264 H   0  0  0  0  0  0  0  0  0  0  0  0
   12.8639   58.1988   17.1366 H   0  0  0  0  0  0  0  0  0  0  0  0
   14.3155   56.7419   15.7565 H   0  0  0  0  0  0  0  0  0  0  0  0
   16.7203   56.5479   16.2675 H   0  0  0  0  0  0  0  0  0  0  0  0
  1  2  1  0
  2  3  2  0
  2  4  1  0
  4  5  1  0
  5  6  2  0
  6  7  1  0
  7  8  2  0
  8  9  1  0
  8 10  1  0
 10 11  1  0
 11 12  1  0
 12 13  2  0
 13 14  1  0
 14 15  2  0
 15 16  1  0
 16 17  1  0
 17 18  2  0
 18 19  1  0
 19 20  2  0
 20 21  1  0
 21 22  2  0
 16 23  2  0
 10 24  2  0
 24  5  1  0
 23 12  1  0
 22 17  1  0
  1 25  1  0
  1 26  1  0
  1 27  1  0
  4 28  1  0
  6 29  1  0
  7 30  1  0
  9 31  1  0
  9 32  1  0
  9 33  1  0
 11 34  1  0
 14 35  1  0
 15 36  1  0
 18 37  1  0
 19 38  1  0
 20 39  1  0
 22 40  1  0
 24 41  1  0
 42 43  1  0
 43 44  1  0
 44 45  2  0
 45 46  1  0
 46 47  2  0
 47 48  1  0
 48 49  2  0
 49 44  1  0
 42 50  1  0
 42 51  1  0
 42 52  1  0
 43 53  1  0
 43 54  1  0
 45 55  1  0
 46 56  1  0
 47 57  1  0
 48 58  1  0
 49 59  1  0
M  END
>  <meeko>  (3) 
{"is_sidechain": [false, true], "free_energy": -8.626, "intermolecular_energy": -9.819, "internal_energy": -3.186}

$$$$

     RDKit          3D

 59 61  0  0  0  0  0  0  0  0999 V2000
   19.0150   42.0140   22.3460 C   0  0  0  0  0  0  0  0  0  0  0  0
   17.9850   43.0920   22.4340 C   0  0  0  0  0  0  0  0  0  0  0  0
   17.0650   42.9990   23.2920 O   0  0  0  0  0  0  0  0  0  0  0  0
   18.1040   44.2630   21.6110 N   0  0  0  0  0  0  0  0  0  0  0  0
   17.0830   45.2700   21.4890 C   0  0  0  0  0  0  0  0  0  0  0  0
   15.7420   44.9930   21.7930 C   0  0  0  0  0  0  0  0  0  0  0  0
   14.7630   45.9760   21.6320 C   0  0  0  0  0  0  0  0  0  0  0  0
   15.1060   47.2550   21.1660 C   0  0  0  0  0  0  0  0  0  0  0  0
   14.0310   48.2950   21.0010 C   0  0  0  0  0  0  0  0  0  0  0  0
   16.4510   47.5390   20.8400 C   0  0  0  0  0  0  0  0  0  0  0  0
   16.8180   48.8230   20.3040 N   0  0  0  0  0  0  0  0  0  0  0  0
   16.6250   49.1970   18.9330 C   0  0  0  0  0  0  0  0  0  0  0  0
   17.6220   49.7960   18.2280 N   0  0  0  0  0  0  0  0  0  0  0  0
   17.4360   50.1770   16.9390 C   0  0  0  0  0  0  0  0  0  0  0  0
   16.2060   49.9610   16.3190 C   0  0  0  0  0  0  0  0  0  0  0  0
   15.1790   49.3450   17.0520 C   0  0  0  0  0  0  0  0  0  0  0  0
   13.8390   49.0910   16.4620 C   0  0  0  0  0  0  0  0  0  0  0  0
   13.6410   48.1270   15.4570 C   0  0  0  0  0  0  0  0  0  0  0  0
   12.3660   47.9100   14.9320 C   0  0  0  0  0  0  0  0  0  0  0  0
   11.2900   48.6530   15.4170 C   0  0  0  0  0  0  0  0  0  0  0  0
   11.4870   49.5750   16.3960 N   0  0  0  0  0  0  0  0  0  0  0  0
   12.7180   49.8060   16.9240 C   0  0  0  0  0  0  0  0  0  0  0  0
   15.4170   48.9890   18.3450 N   0  0  0  0  0  0  0  0  0  0  0  0
   17.4230   46.5340   20.9890 C   0  0  0  0  0  0  0  0  0  0  0  0
   19.3101   41.7052   23.3597 H   0  0  0  0  0  0  0  0  0  0  0  0
   18.5974   41.1510   21.8068 H   0  0  0  0  0  0  0  0  0  0  0  0
   19.8961   42.3919   21.8068 H   0  0  0  0  0  0  0  0  0  0  0  0
   19.0210   44.4320   21.1400 H   0  0  0  0  0  0  0  0  0  0  0  0
   15.4597   43.9954   22.1605 H   0  0  0  0  0  0  0  0  0  0  0  0
   13.7145   45.7461   21.8723 H   0  0  0  0  0  0  0  0  0  0  0  0
   13.6873   48.6275   21.9916 H   0  0  0  0  0  0  0  0  0  0  0  0
   14.4344   49.1544   20.4454 H   0  0  0  0  0  0  0  0  0  0  0  0
   13.1854   47.8634   20.4454 H   0  0  0  0  0  0  0  0  0  0  0  0
   17.3010   49.5080   20.9280 H   0  0  0  0  0  0  0  0  0  0  0  0
   18.2555   50.6562   16.3833 H   0  0  0  0  0  0  0  0  0  0  0  0
   16.0432   50.2674   15.2752 H   0  0  0  0  0  0  0  0  0  0  0  0
   14.4942   47.5419   15.0834 H   0  0  0  0  0  0  0  0  0  0  0  0
   12.2113   47.1596   14.1427 H   0  0  0  0  0  0  0  0  0  0  0  0
   10.2818   48.4928   15.0072 H   0  0  0  0  0  0  0  0  0  0  0  0
   12.8391   50.5573   17.7183 H   0  0  0  0  0  0  0  0  0  0  0  0
   18.4660   46.7432   20.7088 H   0  0  0  0  0  0  0  0  0  0  0  0
   18.5420   56.2570   18.3510 C   0  0  0  0  0  0  0  0  0  0  0  0
   18.0800   57.7240   18.3080 C   0  0  0  0  0  0  0  0  0  0  0  0
   16.6240   57.8900   17.9660 C   0  0  0  0  0  0  0  0  0  0  0  0
   15.7790   58.6150   18.7920 C   0  0  0  0  0  0  0  0  0  0  0  0
   14.4410   58.7200   18.5180 C   0  0  0  0  0  0  0  0  0  0  0  0
   13.9250   58.1050   17.4130 C   0  0  0  0  0  0  0  0  0  0  0  0
   14.7490   57.3830   16.5740 C   0  0  0  0  0  0  0  0  0  0  0  0
   16.0870   57.2790   16.8470 C   0  0  0  0  0  0  0  0  0  0  0  0
   18.6434   55.9351   19.3979 H   0  0  0  0  0  0  0  0  0  0  0  0
   17.7998   55.6238   17.8429 H   0  0  0  0  0  0  0  0  0  0  0  0
   19.5131   56.1634   17.8429 H   0  0  0  0  0  0  0  0  0  0  0  0
   18.2580   58.1732   19.2962 H   0  0  0  0  0  0  0  0  0  0  0  0
   18.6556   58.2190   17.5120 H   0  0  0  0  0  0  0  0  0  0  0  0
   16.1897   59.1141   19.6820 H   0  0  0  0  0  0  0  0  0  0  0  0
   13.7845   59.2975   19.1855 H   0  0  0  0  0  0  0  0  0  0  0  0
   12.8505   58.1854   17.1915 H   0  0  0  0  0  0  0  0  0  0  0  0
   14.3304   56.8900   15.6842 H   0  0  0  0  0  0  0  0  0  0  0  0
   16.7392   56.7057   16.1718 H   0  0  0  0  0  0  0  0  0  0  0  0
  1  2  1  0
  2  3  2  0
  2  4  1  0
  4  5  1  0
  5  6  2  0
  6  7  1  0
  7  8  2  0
  8  9  1  0
  8 10  1  0
 10 11  1  0
 11 12  1  0
 12 13  2  0
 13 14  1  0
 14 15  2  0
 15 16  1  0
 16 17  1  0
 17 18  2  0
 18 19  1  0
 19 20  2  0
 20 21  1  0
 21 22  2  0
 16 23  2  0
 10 24  2  0
 24  5  1  0
 23 12  1  0
 22 17  1  0
  1 25  1  0
  1 26  1  0
  1 27  1  0
  4 28  1  0
  6 29  1  0
  7 30  1  0
  9 31  1  0
  9 32  1  0
  9 33  1  0
 11 34  1  0
 14 35  1  0
 15 36  1  0
 18 37  1  0
 19 38  1  0
 20 39  1  0
 22 40  1  0
 24 41  1  0
 42 43  1  0
 43 44  1  0
 44 45  2  0
 45 46  1  0
 46 47  2  0
 47 48  1  0
 48 49  2  0
 49 44  1  0
 42 50  1  0
 42 51  1  0
 42 52  1  0
 43 53  1  0
 43 54  1  0
 45 55  1  0
 46 56  1  0
 47 57  1  0
 48 58  1  0
 49 59  1  0
M  END
>  <meeko>  (4) 
{"is_sidechain": [false, true], "free_energy": -8.465, "intermolecular_energy": -9.658, "internal_energy": -3.755}

$$$$

     RDKit          3D

 59 61  0  0  0  0  0  0  0  0999 V2000
   10.7970   47.5280   14.2910 C   0  0  0  0  0  0  0  0  0  0  0  0
   12.2010   47.8770   14.6640 C   0  0  0  0  0  0  0  0  0  0  0  0
   13.1450   47.5310   13.9030 O   0  0  0  0  0  0  0  0  0  0  0  0
   12.4530   48.6780   15.8280 N   0  0  0  0  0  0  0  0  0  0  0  0
   13.7630   48.9220   16.3710 C   0  0  0  0  0  0  0  0  0  0  0  0
   14.2400   48.2060   17.4790 C   0  0  0  0  0  0  0  0  0  0  0  0
   15.5000   48.4840   18.0120 C   0  0  0  0  0  0  0  0  0  0  0  0
   16.3090   49.4830   17.4460 C   0  0  0  0  0  0  0  0  0  0  0  0
   17.6620   49.7640   18.0420 C   0  0  0  0  0  0  0  0  0  0  0  0
   15.8310   50.2230   16.3420 C   0  0  0  0  0  0  0  0  0  0  0  0
   16.6150   51.2920   15.7830 N   0  0  0  0  0  0  0  0  0  0  0  0
   16.0490   52.4890   15.2320 C   0  0  0  0  0  0  0  0  0  0  0  0
   15.1510   53.2250   15.9410 N   0  0  0  0  0  0  0  0  0  0  0  0
   14.5920   54.3430   15.4140 C   0  0  0  0  0  0  0  0  0  0  0  0
   14.9300   54.7500   14.1240 C   0  0  0  0  0  0  0  0  0  0  0  0
   15.8550   53.9860   13.3950 C   0  0  0  0  0  0  0  0  0  0  0  0
   16.2560   54.3500   12.0120 C   0  0  0  0  0  0  0  0  0  0  0  0
   15.8620   55.5650   11.4210 C   0  0  0  0  0  0  0  0  0  0  0  0
   16.2640   55.8780   10.1220 C   0  0  0  0  0  0  0  0  0  0  0  0
   17.0650   54.9790    9.4170 C   0  0  0  0  0  0  0  0  0  0  0  0
   17.4510   53.8130    9.9990 N   0  0  0  0  0  0  0  0  0  0  0  0
   17.0730   53.4840   11.2620 C   0  0  0  0  0  0  0  0  0  0  0  0
   16.3810   52.8680   13.9700 N   0  0  0  0  0  0  0  0  0  0  0  0
   14.5520   49.9440   15.8280 C   0  0  0  0  0  0  0  0  0  0  0  0
   10.2012   47.3799   15.2037 H   0  0  0  0  0  0  0  0  0  0  0  0
   10.3614   48.3452   13.6973 H   0  0  0  0  0  0  0  0  0  0  0  0
   10.7947   46.6020   13.6973 H   0  0  0  0  0  0  0  0  0  0  0  0
   11.6420   49.1820   16.2530 H   0  0  0  0  0  0  0  0  0  0  0  0
   13.6170   47.4201   17.9310 H   0  0  0  0  0  0  0  0  0  0  0  0
   15.8620   47.9163   18.8819 H   0  0  0  0  0  0  0  0  0  0  0  0
   17.5895   49.7489   19.1395 H   0  0  0  0  0  0  0  0  0  0  0  0
   18.3754   48.9948   17.7111 H   0  0  0  0  0  0  0  0  0  0  0  0
   18.0101   50.7536   17.7111 H   0  0  0  0  0  0  0  0  0  0  0  0
   17.6520   51.1750   15.7220 H   0  0  0  0  0  0  0  0  0  0  0  0
   13.8720   54.9286   16.0045 H   0  0  0  0  0  0  0  0  0  0  0  0
   14.4802   55.6530   13.6856 H   0  0  0  0  0  0  0  0  0  0  0  0
   15.2347   56.2707   11.9854 H   0  0  0  0  0  0  0  0  0  0  0  0
   15.9521   56.8252    9.6578 H   0  0  0  0  0  0  0  0  0  0  0  0
   17.3839   55.2138    8.3908 H   0  0  0  0  0  0  0  0  0  0  0  0
   17.4084   52.5331   11.7017 H   0  0  0  0  0  0  0  0  0  0  0  0
   14.1653   50.5376   14.9865 H   0  0  0  0  0  0  0  0  0  0  0  0
   18.5420   56.2570   18.3510 C   0  0  0  0  0  0  0  0  0  0  0  0
   18.0800   57.7240   18.3080 C   0  0  0  0  0  0  0  0  0  0  0  0
   16.6260   57.8900   17.9570 C   0  0  0  0  0  0  0  0  0  0  0  0
   15.7900   58.6630   18.7470 C   0  0  0  0  0  0  0  0  0  0  0  0
   14.4530   58.7710   18.4670 C   0  0  0  0  0  0  0  0  0  0  0  0
   13.9300   58.1100   17.3920 C   0  0  0  0  0  0  0  0  0  0  0  0
   14.7450   57.3400   16.5890 C   0  0  0  0  0  0  0  0  0  0  0  0
   16.0830   57.2330   16.8680 C   0  0  0  0  0  0  0  0  0  0  0  0
   18.6434   55.9351   19.3979 H   0  0  0  0  0  0  0  0  0  0  0  0
   17.7998   55.6238   17.8429 H   0  0  0  0  0  0  0  0  0  0  0  0
   19.5131   56.1634   17.8429 H   0  0  0  0  0  0  0  0  0  0  0  0
   18.2515   58.1713   19.2982 H   0  0  0  0  0  0  0  0  0  0  0  0
   18.6606   58.2210   17.5168 H   0  0  0  0  0  0  0  0  0  0  0  0
   16.2065   59.1985   19.6129 H   0  0  0  0  0  0  0  0  0  0  0  0
   13.8033   59.3876   19.1055 H   0  0  0  0  0  0  0  0  0  0  0  0
   12.8565   58.1921   17.1664 H   0  0  0  0  0  0  0  0  0  0  0  0
   14.3207   56.8107   15.7231 H   0  0  0  0  0  0  0  0  0  0  0  0
   16.7288   56.6206   16.2215 H   0  0  0  0  0  0  0  0  0  0  0  0
  1  2  1  0
  2  3  2  0
  2  4  1  0
  4  5  1  0
  5  6  2  0
  6  7  1  0
  7  8  2  0
  8  9  1  0
  8 10  1  0
 10 11  1  0
 11 12  1  0
 12 13  2  0
 13 14  1  0
 14 15  2  0
 15 16  1  0
 16 17  1  0
 17 18  2  0
 18 19  1  0
 19 20  2  0
 20 21  1  0
 21 22  2  0
 16 23  2  0
 10 24  2  0
 24  5  1  0
 23 12  1  0
 22 17  1  0
  1 25  1  0
  1 26  1  0
  1 27  1  0
  4 28  1  0
  6 29  1  0
  7 30  1  0
  9 31  1  0
  9 32  1  0
  9 33  1  0
 11 34  1  0
 14 35  1  0
 15 36  1  0
 18 37  1  0
 19 38  1  0
 20 39  1  0
 22 40  1  0
 24 41  1  0
 42 43  1  0
 43 44  1  0
 44 45  2  0
 45 46  1  0
 46 47  2  0
 47 48  1  0
 48 49  2  0
 49 44  1  0
 42 50  1  0
 42 51  1  0
 42 52  1  0
 43 53  1  0
 43 54  1  0
 45 55  1  0
 46 56  1  0
 47 57  1  0
 48 58  1  0
 49 59  1  0
M  END
>  <meeko>  (5) 
{"is_sidechain": [false, true], "free_energy": -8.32, "intermolecular_energy": -9.513, "internal_energy": -3.698}

$$$$

     RDKit          3D

 59 61  0  0  0  0  0  0  0  0999 V2000
   11.4120   47.1530   13.0030 C   0  0  0  0  0  0  0  0  0  0  0  0
   12.1920   47.5700   14.2070 C   0  0  0  0  0  0  0  0  0  0  0  0
   13.3140   47.0390   14.4290 O   0  0  0  0  0  0  0  0  0  0  0  0
   11.7030   48.6300   15.0430 N   0  0  0  0  0  0  0  0  0  0  0  0
   12.2800   48.9870   16.3120 C   0  0  0  0  0  0  0  0  0  0  0  0
   12.9340   50.2140   16.4990 C   0  0  0  0  0  0  0  0  0  0  0  0
   13.5170   50.5240   17.7290 C   0  0  0  0  0  0  0  0  0  0  0  0
   13.4580   49.6140   18.7960 C   0  0  0  0  0  0  0  0  0  0  0  0
   14.0980   49.9720   20.1100 C   0  0  0  0  0  0  0  0  0  0  0  0
   12.8190   48.3680   18.6130 C   0  0  0  0  0  0  0  0  0  0  0  0
   12.7970   47.3940   19.6730 N   0  0  0  0  0  0  0  0  0  0  0  0
   13.9780   46.8200   20.2500 C   0  0  0  0  0  0  0  0  0  0  0  0
   13.9140   46.1220   21.4150 N   0  0  0  0  0  0  0  0  0  0  0  0
   15.0320   45.6010   21.9800 C   0  0  0  0  0  0  0  0  0  0  0  0
   16.2720   45.7830   21.3680 C   0  0  0  0  0  0  0  0  0  0  0  0
   16.3330   46.5070   20.1670 C   0  0  0  0  0  0  0  0  0  0  0  0
   17.6180   46.7520   19.4630 C   0  0  0  0  0  0  0  0  0  0  0  0
   17.6880   47.5370   18.2980 C   0  0  0  0  0  0  0  0  0  0  0  0
   18.9130   47.7530   17.6670 C   0  0  0  0  0  0  0  0  0  0  0  0
   20.0690   47.1870   18.2050 C   0  0  0  0  0  0  0  0  0  0  0  0
   19.9960   46.4390   19.3370 N   0  0  0  0  0  0  0  0  0  0  0  0
   18.8150   46.2140   19.9710 C   0  0  0  0  0  0  0  0  0  0  0  0
   15.1800   47.0150   19.6480 N   0  0  0  0  0  0  0  0  0  0  0  0
   12.2510   48.0620   17.3640 C   0  0  0  0  0  0  0  0  0  0  0  0
   10.4835   46.6566   13.3215 H   0  0  0  0  0  0  0  0  0  0  0  0
   11.1657   48.0397   12.4005 H   0  0  0  0  0  0  0  0  0  0  0  0
   12.0125   46.4556   12.4005 H   0  0  0  0  0  0  0  0  0  0  0  0
   10.9360   49.2300   14.6640 H   0  0  0  0  0  0  0  0  0  0  0  0
   12.9877   50.9364   15.6712 H   0  0  0  0  0  0  0  0  0  0  0  0
   14.0268   51.4894   17.8631 H   0  0  0  0  0  0  0  0  0  0  0  0
   13.4636   49.6171   20.9356 H   0  0  0  0  0  0  0  0  0  0  0  0
   15.0876   49.4964   20.1775 H   0  0  0  0  0  0  0  0  0  0  0  0
   14.2107   51.0641   20.1775 H   0  0  0  0  0  0  0  0  0  0  0  0
   11.8730   47.0400   20.0090 H   0  0  0  0  0  0  0  0  0  0  0  0
   14.9605   45.0351   22.9206 H   0  0  0  0  0  0  0  0  0  0  0  0
   17.1853   45.3669   21.8182 H   0  0  0  0  0  0  0  0  0  0  0  0
   16.7722   47.9827   17.8825 H   0  0  0  0  0  0  0  0  0  0  0  0
   18.9671   48.3639   16.7538 H   0  0  0  0  0  0  0  0  0  0  0  0
   21.0397   47.3463   17.7127 H   0  0  0  0  0  0  0  0  0  0  0  0
   18.7947   45.6068   20.8880 H   0  0  0  0  0  0  0  0  0  0  0  0
   11.7766   47.0815   17.2103 H   0  0  0  0  0  0  0  0  0  0  0  0
   18.5420   56.2570   18.3510 C   0  0  0  0  0  0  0  0  0  0  0  0
   18.0800   57.7240   18.3080 C   0  0  0  0  0  0  0  0  0  0  0  0
   16.6210   57.8890   17.9780 C   0  0  0  0  0  0  0  0  0  0  0  0
   15.7910   58.6440   18.7920 C   0  0  0  0  0  0  0  0  0  0  0  0
   14.4500   58.7500   18.5300 C   0  0  0  0  0  0  0  0  0  0  0  0
   13.9180   58.1060   17.4490 C   0  0  0  0  0  0  0  0  0  0  0  0
   14.7270   57.3540   16.6230 C   0  0  0  0  0  0  0  0  0  0  0  0
   16.0680   57.2490   16.8840 C   0  0  0  0  0  0  0  0  0  0  0  0
   18.6434   55.9351   19.3979 H   0  0  0  0  0  0  0  0  0  0  0  0
   17.7998   55.6238   17.8429 H   0  0  0  0  0  0  0  0  0  0  0  0
   19.5131   56.1634   17.8429 H   0  0  0  0  0  0  0  0  0  0  0  0
   18.2665   58.1759   19.2934 H   0  0  0  0  0  0  0  0  0  0  0  0
   18.6489   58.2170   17.5059 H   0  0  0  0  0  0  0  0  0  0  0  0
   16.2155   59.1663   19.6621 H   0  0  0  0  0  0  0  0  0  0  0  0
   13.8047   59.3511   19.1874 H   0  0  0  0  0  0  0  0  0  0  0  0
   12.8417   58.1874   17.2368 H   0  0  0  0  0  0  0  0  0  0  0  0
   14.2949   56.8376   15.7532 H   0  0  0  0  0  0  0  0  0  0  0  0
   16.7089   56.6516   16.2189 H   0  0  0  0  0  0  0  0  0  0  0  0
  1  2  1  0
  2  3  2  0
  2  4  1  0
  4  5  1  0
  5  6  2  0
  6  7  1  0
  7  8  2  0
  8  9  1  0
  8 10  1  0
 10 11  1  0
 11 12  1  0
 12 13  2  0
 13 14  1  0
 14 15  2  0
 15 16  1  0
 16 17  1  0
 17 18  2  0
 18 19  1  0
 19 20  2  0
 20 21  1  0
 21 22  2  0
 16 23  2  0
 10 24  2  0
 24  5  1  0
 23 12  1  0
 22 17  1  0
  1 25  1  0
  1 26  1  0
  1 27  1  0
  4 28  1  0
  6 29  1  0
  7 30  1  0
  9 31  1  0
  9 32  1  0
  9 33  1  0
 11 34  1  0
 14 35  1  0
 15 36  1  0
 18 37  1  0
 19 38  1  0
 20 39  1  0
 22 40  1  0
 24 41  1  0
 42 43  1  0
 43 44  1  0
 44 45  2  0
 45 46  1  0
 46 47  2  0
 47 48  1  0
 48 49  2  0
 49 44  1  0
 42 50  1  0
 42 51  1  0
 42 52  1  0
 43 53  1  0
 43 54  1  0
 45 55  1  0
 46 56  1  0
 47 57  1  0
 48 58  1  0
 49 59  1  0
M  END
>  <meeko>  (6) 
{"is_sidechain": [false, true], "free_energy": -8.204, "intermolecular_energy": -9.397, "internal_energy": -3.916}

$$$$

     RDKit          3D

 59 61  0  0  0  0  0  0  0  0999 V2000
   12.3120   58.4820   11.5990 C   0  0  0  0  0  0  0  0  0  0  0  0
   13.5120   57.7170   12.0520 C   0  0  0  0  0  0  0  0  0  0  0  0
   14.3390   58.2690   12.8290 O   0  0  0  0  0  0  0  0  0  0  0  0
   13.6650   56.3380   11.6790 N   0  0  0  0  0  0  0  0  0  0  0  0
   14.8570   55.5670   11.9110 C   0  0  0  0  0  0  0  0  0  0  0  0
   15.6870   55.1670   10.8540 C   0  0  0  0  0  0  0  0  0  0  0  0
   16.8190   54.3880   11.1010 C   0  0  0  0  0  0  0  0  0  0  0  0
   17.1440   53.9940   12.4090 C   0  0  0  0  0  0  0  0  0  0  0  0
   18.3690   53.1530   12.6450 C   0  0  0  0  0  0  0  0  0  0  0  0
   16.3050   54.3760   13.4790 C   0  0  0  0  0  0  0  0  0  0  0  0
   16.5830   53.9350   14.8200 N   0  0  0  0  0  0  0  0  0  0  0  0
   15.9820   52.7780   15.4170 C   0  0  0  0  0  0  0  0  0  0  0  0
   14.6350   52.7060   15.5940 N   0  0  0  0  0  0  0  0  0  0  0  0
   14.0650   51.6250   16.1840 C   0  0  0  0  0  0  0  0  0  0  0  0
   14.8610   50.5690   16.6240 C   0  0  0  0  0  0  0  0  0  0  0  0
   16.2510   50.6500   16.4410 C   0  0  0  0  0  0  0  0  0  0  0  0
   17.1650   49.5690   16.8930 C   0  0  0  0  0  0  0  0  0  0  0  0
   18.2900   49.8370   17.6960 C   0  0  0  0  0  0  0  0  0  0  0  0
   19.1230   48.7960   18.1090 C   0  0  0  0  0  0  0  0  0  0  0  0
   18.8270   47.4890   17.7240 C   0  0  0  0  0  0  0  0  0  0  0  0
   17.7330   47.2360   16.9580 N   0  0  0  0  0  0  0  0  0  0  0  0
   16.9060   48.2320   16.5420 C   0  0  0  0  0  0  0  0  0  0  0  0
   16.7720   51.7610   15.8500 N   0  0  0  0  0  0  0  0  0  0  0  0
   15.1580   55.1450   13.2140 C   0  0  0  0  0  0  0  0  0  0  0  0
   11.7521   58.8389   12.4760 H   0  0  0  0  0  0  0  0  0  0  0  0
   12.6328   59.3426   10.9937 H   0  0  0  0  0  0  0  0  0  0  0  0
   11.6672   57.8279   10.9937 H   0  0  0  0  0  0  0  0  0  0  0  0
   12.8270   55.8470   11.2920 H   0  0  0  0  0  0  0  0  0  0  0  0
   15.4449   55.4687    9.8243 H   0  0  0  0  0  0  0  0  0  0  0  0
   17.4621   54.0801   10.2634 H   0  0  0  0  0  0  0  0  0  0  0  0
   18.5334   53.0401   13.7268 H   0  0  0  0  0  0  0  0  0  0  0  0
   18.2263   52.1616   12.1904 H   0  0  0  0  0  0  0  0  0  0  0  0
   19.2429   53.6424   12.1904 H   0  0  0  0  0  0  0  0  0  0  0  0
   17.2150   54.5150   15.4170 H   0  0  0  0  0  0  0  0  0  0  0  0
   12.9737   51.5822   16.3151 H   0  0  0  0  0  0  0  0  0  0  0  0
   14.4092   49.6891   17.1053 H   0  0  0  0  0  0  0  0  0  0  0  0
   18.5133   50.8706   17.9990 H   0  0  0  0  0  0  0  0  0  0  0  0
   20.0049   49.0048   18.7325 H   0  0  0  0  0  0  0  0  0  0  0  0
   19.4794   46.6618   18.0405 H   0  0  0  0  0  0  0  0  0  0  0  0
   16.0274   47.9900   15.9260 H   0  0  0  0  0  0  0  0  0  0  0  0
   14.4868   55.4196   14.0411 H   0  0  0  0  0  0  0  0  0  0  0  0
   18.5420   56.2570   18.3510 C   0  0  0  0  0  0  0  0  0  0  0  0
   18.0800   57.7240   18.3080 C   0  0  0  0  0  0  0  0  0  0  0  0
   16.7280   57.9140   17.6740 C   0  0  0  0  0  0  0  0  0  0  0  0
   15.6670   58.4230   18.4070 C   0  0  0  0  0  0  0  0  0  0  0  0
   14.4190   58.5440   17.8540 C   0  0  0  0  0  0  0  0  0  0  0  0
   14.2120   58.1600   16.5590 C   0  0  0  0  0  0  0  0  0  0  0  0
   15.2550   57.6560   15.8110 C   0  0  0  0  0  0  0  0  0  0  0  0
   16.5030   57.5360   16.3630 C   0  0  0  0  0  0  0  0  0  0  0  0
   18.6434   55.9351   19.3979 H   0  0  0  0  0  0  0  0  0  0  0  0
   17.7998   55.6238   17.8429 H   0  0  0  0  0  0  0  0  0  0  0  0
   19.5131   56.1634   17.8429 H   0  0  0  0  0  0  0  0  0  0  0  0
   18.0367   58.1049   19.3390 H   0  0  0  0  0  0  0  0  0  0  0  0
   18.8055   58.2716   17.6885 H   0  0  0  0  0  0  0  0  0  0  0  0
   15.8296   58.7348   19.4493 H   0  0  0  0  0  0  0  0  0  0  0  0
   13.5875   58.9484   18.4499 H   0  0  0  0  0  0  0  0  0  0  0  0
   13.2111   58.2532   16.1123 H   0  0  0  0  0  0  0  0  0  0  0  0
   15.0845   57.3495   14.7684 H   0  0  0  0  0  0  0  0  0  0  0  0
   17.3314   57.1364   15.7596 H   0  0  0  0  0  0  0  0  0  0  0  0
  1  2  1  0
  2  3  2  0
  2  4  1  0
  4  5  1  0
  5  6  2  0
  6  7  1  0
  7  8  2  0
  8  9  1  0
  8 10  1  0
 10 11  1  0
 11 12  1  0
 12 13  2  0
 13 14  1  0
 14 15  2  0
 15 16  1  0
 16 17  1  0
 17 18  2  0
 18 19  1  0
 19 20  2  0
 20 21  1  0
 21 22  2  0
 16 23  2  0
 10 24  2  0
 24  5  1  0
 23 12  1  0
 22 17  1  0
  1 25  1  0
  1 26  1  0
  1 27  1  0
  4 28  1  0
  6 29  1  0
  7 30  1  0
  9 31  1  0
  9 32  1  0
  9 33  1  0
 11 34  1  0
 14 35  1  0
 15 36  1  0
 18 37  1  0
 19 38  1  0
 20 39  1  0
 22 40  1  0
 24 41  1  0
 42 43  1  0
 43 44  1  0
 44 45  2  0
 45 46  1  0
 46 47  2  0
 47 48  1  0
 48 49  2  0
 49 44  1  0
 42 50  1  0
 42 51  1  0
 42 52  1  0
 43 53  1  0
 43 54  1  0
 45 55  1  0
 46 56  1  0
 47 57  1  0
 48 58  1  0
 49 59  1  0
M  END
>  <meeko>  (7) 
{"is_sidechain": [false, true], "free_energy": -8.069, "intermolecular_energy": -9.263, "internal_energy": -3.648}

$$$$

     RDKit          3D

 59 61  0  0  0  0  0  0  0  0999 V2000
   16.5250   53.6020   14.3000 C   0  0  0  0  0  0  0  0  0  0  0  0
   15.8790   52.6740   15.2760 C   0  0  0  0  0  0  0  0  0  0  0  0
   14.7750   52.9940   15.7940 O   0  0  0  0  0  0  0  0  0  0  0  0
   16.4700   51.3920   15.5410 N   0  0  0  0  0  0  0  0  0  0  0  0
   16.0310   50.5030   16.5840 C   0  0  0  0  0  0  0  0  0  0  0  0
   14.7100   50.0350   16.6390 C   0  0  0  0  0  0  0  0  0  0  0  0
   14.2980   49.2020   17.6800 C   0  0  0  0  0  0  0  0  0  0  0  0
   15.1980   48.8190   18.6880 C   0  0  0  0  0  0  0  0  0  0  0  0
   14.7260   47.9220   19.8000 C   0  0  0  0  0  0  0  0  0  0  0  0
   16.5260   49.3000   18.6530 C   0  0  0  0  0  0  0  0  0  0  0  0
   17.4510   48.9700   19.7040 N   0  0  0  0  0  0  0  0  0  0  0  0
   18.3420   47.8480   19.6560 C   0  0  0  0  0  0  0  0  0  0  0  0
   19.4390   47.8640   18.8520 N   0  0  0  0  0  0  0  0  0  0  0  0
   20.2700   46.7940   18.7820 C   0  0  0  0  0  0  0  0  0  0  0  0
   20.0030   45.6530   19.5360 C   0  0  0  0  0  0  0  0  0  0  0  0
   18.8690   45.6400   20.3630 C   0  0  0  0  0  0  0  0  0  0  0  0
   18.5130   44.4570   21.1880 C   0  0  0  0  0  0  0  0  0  0  0  0
   19.1850   43.2290   21.0530 C   0  0  0  0  0  0  0  0  0  0  0  0
   18.8300   42.1400   21.8500 C   0  0  0  0  0  0  0  0  0  0  0  0
   17.8060   42.2820   22.7860 C   0  0  0  0  0  0  0  0  0  0  0  0
   17.1670   43.4750   22.9190 N   0  0  0  0  0  0  0  0  0  0  0  0
   17.4940   44.5510   22.1550 C   0  0  0  0  0  0  0  0  0  0  0  0
   18.0630   46.7390   20.3900 N   0  0  0  0  0  0  0  0  0  0  0  0
   16.9220   50.1520   17.6070 C   0  0  0  0  0  0  0  0  0  0  0  0
   17.0707   54.3860   14.8455 H   0  0  0  0  0  0  0  0  0  0  0  0
   17.2271   53.0386   13.6679 H   0  0  0  0  0  0  0  0  0  0  0  0
   15.7529   54.0649   13.6679 H   0  0  0  0  0  0  0  0  0  0  0  0
   17.2060   51.0530   14.8820 H   0  0  0  0  0  0  0  0  0  0  0  0
   13.9940   50.3265   15.8564 H   0  0  0  0  0  0  0  0  0  0  0  0
   13.2590   48.8421   17.7114 H   0  0  0  0  0  0  0  0  0  0  0  0
   14.9679   48.3817   20.7696 H   0  0  0  0  0  0  0  0  0  0  0  0
   13.6377   47.7825   19.7217 H   0  0  0  0  0  0  0  0  0  0  0  0
   15.2273   46.9460   19.7217 H   0  0  0  0  0  0  0  0  0  0  0  0
   17.4420   49.5440   20.5780 H   0  0  0  0  0  0  0  0  0  0  0  0
   21.1551   46.8271   18.1297 H   0  0  0  0  0  0  0  0  0  0  0  0
   20.6686   44.7787   19.4841 H   0  0  0  0  0  0  0  0  0  0  0  0
   19.9946   43.1264   20.3154 H   0  0  0  0  0  0  0  0  0  0  0  0
   19.3530   41.1784   21.7410 H   0  0  0  0  0  0  0  0  0  0  0  0
   17.5152   41.4290   23.4167 H   0  0  0  0  0  0  0  0  0  0  0  0
   16.9586   45.5019   22.2934 H   0  0  0  0  0  0  0  0  0  0  0  0
   17.9476   50.5494   17.5914 H   0  0  0  0  0  0  0  0  0  0  0  0
   18.5420   56.2570   18.3510 C   0  0  0  0  0  0  0  0  0  0  0  0
   18.0800   57.7240   18.3080 C   0  0  0  0  0  0  0  0  0  0  0  0
   16.6210   57.8890   17.9760 C   0  0  0  0  0  0  0  0  0  0  0  0
   15.7880   58.6350   18.7960 C   0  0  0  0  0  0  0  0  0  0  0  0
   14.4470   58.7400   18.5320 C   0  0  0  0  0  0  0  0  0  0  0  0
   13.9190   58.1060   17.4440 C   0  0  0  0  0  0  0  0  0  0  0  0
   14.7310   57.3630   16.6120 C   0  0  0  0  0  0  0  0  0  0  0  0
   16.0720   57.2580   16.8750 C   0  0  0  0  0  0  0  0  0  0  0  0
   18.6434   55.9351   19.3979 H   0  0  0  0  0  0  0  0  0  0  0  0
   17.7998   55.6238   17.8429 H   0  0  0  0  0  0  0  0  0  0  0  0
   19.5131   56.1634   17.8429 H   0  0  0  0  0  0  0  0  0  0  0  0
   18.2651   58.1755   19.2938 H   0  0  0  0  0  0  0  0  0  0  0  0
   18.6500   58.2174   17.5069 H   0  0  0  0  0  0  0  0  0  0  0  0
   16.2097   59.1503   19.6716 H   0  0  0  0  0  0  0  0  0  0  0  0
   13.7987   59.3327   19.1941 H   0  0  0  0  0  0  0  0  0  0  0  0
   12.8431   58.1879   17.2302 H   0  0  0  0  0  0  0  0  0  0  0  0
   14.3015   56.8542   15.7364 H   0  0  0  0  0  0  0  0  0  0  0  0
   16.7156   56.6680   16.2059 H   0  0  0  0  0  0  0  0  0  0  0  0
  1  2  1  0
  2  3  2  0
  2  4  1  0
  4  5  1  0
  5  6  2  0
  6  7  1  0
  7  8  2  0
  8  9  1  0
  8 10  1  0
 10 11  1  0
 11 12  1  0
 12 13  2  0
 13 14  1  0
 14 15  2  0
 15 16  1  0
 16 17  1  0
 17 18  2  0
 18 19  1  0
 19 20  2  0
 20 21  1  0
 21 22  2  0
 16 23  2  0
 10 24  2  0
 24  5  1  0
 23 12  1  0
 22 17  1  0
  1 25  1  0
  1 26  1  0
  1 27  1  0
  4 28  1  0
  6 29  1  0
  7 30  1  0
  9 31  1  0
  9 32  1  0
  9 33  1  0
 11 34  1  0
 14 35  1  0
 15 36  1  0
 18 37  1  0
 19 38  1  0
 20 39  1  0
 22 40  1  0
 24 41  1  0
 42 43  1  0
 43 44  1  0
 44 45  2  0
 45 46  1  0
 46 47  2  0
 47 48  1  0
 48 49  2  0
 49 44  1  0
 42 50  1  0
 42 51  1  0
 42 52  1  0
 43 53  1  0
 43 54  1  0
 45 55  1  0
 46 56  1  0
 47 57  1  0
 48 58  1  0
 49 59  1  0
M  END
>  <meeko>  (8) 
{"is_sidechain": [false, true], "free_energy": -7.961, "intermolecular_energy": -9.154, "internal_energy": -3.747}

$$$$

     RDKit          3D

 59 61  0  0  0  0  0  0  0  0999 V2000
   11.7920   47.1500   12.8060 C   0  0  0  0  0  0  0  0  0  0  0  0
   12.5310   47.5010   14.0560 C   0  0  0  0  0  0  0  0  0  0  0  0
   13.5050   46.7870   14.4170 O   0  0  0  0  0  0  0  0  0  0  0  0
   12.1870   48.6930   14.7780 N   0  0  0  0  0  0  0  0  0  0  0  0
   12.7110   49.0290   16.0760 C   0  0  0  0  0  0  0  0  0  0  0  0
   11.8920   49.0370   17.2150 C   0  0  0  0  0  0  0  0  0  0  0  0
   12.4140   49.4010   18.4570 C   0  0  0  0  0  0  0  0  0  0  0  0
   13.7650   49.7630   18.5860 C   0  0  0  0  0  0  0  0  0  0  0  0
   14.3010   50.1540   19.9370 C   0  0  0  0  0  0  0  0  0  0  0  0
   14.5930   49.7770   17.4420 C   0  0  0  0  0  0  0  0  0  0  0  0
   15.9650   50.2010   17.5370 N   0  0  0  0  0  0  0  0  0  0  0  0
   17.0220   49.3690   18.0350 C   0  0  0  0  0  0  0  0  0  0  0  0
   18.3010   49.5360   17.6020 N   0  0  0  0  0  0  0  0  0  0  0  0
   19.3000   48.7330   18.0490 C   0  0  0  0  0  0  0  0  0  0  0  0
   19.0220   47.7160   18.9610 C   0  0  0  0  0  0  0  0  0  0  0  0
   17.7000   47.5470   19.4020 C   0  0  0  0  0  0  0  0  0  0  0  0
   17.3250   46.4790   20.3650 C   0  0  0  0  0  0  0  0  0  0  0  0
   15.9810   46.1640   20.6360 C   0  0  0  0  0  0  0  0  0  0  0  0
   15.6650   45.1490   21.5400 C   0  0  0  0  0  0  0  0  0  0  0  0
   16.6940   44.4460   22.1670 C   0  0  0  0  0  0  0  0  0  0  0  0
   17.9900   44.7490   21.8920 N   0  0  0  0  0  0  0  0  0  0  0  0
   18.3250   45.7330   21.0160 C   0  0  0  0  0  0  0  0  0  0  0  0
   16.7340   48.3760   18.9160 N   0  0  0  0  0  0  0  0  0  0  0  0
   14.0500   49.4250   16.1940 C   0  0  0  0  0  0  0  0  0  0  0  0
   10.8268   46.6916   13.0671 H   0  0  0  0  0  0  0  0  0  0  0  0
   11.6172   48.0613   12.2152 H   0  0  0  0  0  0  0  0  0  0  0  0
   12.3879   46.4387   12.2152 H   0  0  0  0  0  0  0  0  0  0  0  0
   11.5870   49.3970   14.2920 H   0  0  0  0  0  0  0  0  0  0  0  0
   10.8323   48.7547   17.1286 H   0  0  0  0  0  0  0  0  0  0  0  0
   11.7617   49.4044   19.3427 H   0  0  0  0  0  0  0  0  0  0  0  0
   13.6795   49.7006   20.7233 H   0  0  0  0  0  0  0  0  0  0  0  0
   15.3369   49.7980   20.0375 H   0  0  0  0  0  0  0  0  0  0  0  0
   14.2783   51.2492   20.0375 H   0  0  0  0  0  0  0  0  0  0  0  0
   16.2040   51.1860   17.2810 H   0  0  0  0  0  0  0  0  0  0  0  0
   20.3291   48.8848   17.6915 H   0  0  0  0  0  0  0  0  0  0  0  0
   19.8235   47.0582   19.3282 H   0  0  0  0  0  0  0  0  0  0  0  0
   15.1759   46.7200   20.1333 H   0  0  0  0  0  0  0  0  0  0  0  0
   14.6143   44.9055   21.7562 H   0  0  0  0  0  0  0  0  0  0  0  0
   16.4564   43.6464   22.8840 H   0  0  0  0  0  0  0  0  0  0  0  0
   19.3849   45.9476   20.8146 H   0  0  0  0  0  0  0  0  0  0  0  0
   14.6856   49.4609   15.2969 H   0  0  0  0  0  0  0  0  0  0  0  0
   18.5420   56.2570   18.3510 C   0  0  0  0  0  0  0  0  0  0  0  0
   18.0800   57.7240   18.3080 C   0  0  0  0  0  0  0  0  0  0  0  0
   16.6080   57.8870   18.0390 C   0  0  0  0  0  0  0  0  0  0  0  0
   16.0460   57.4130   16.8640 C   0  0  0  0  0  0  0  0  0  0  0  0
   14.7190   57.6100   16.5850 C   0  0  0  0  0  0  0  0  0  0  0  0
   13.9320   58.2820   17.4770 C   0  0  0  0  0  0  0  0  0  0  0  0
   14.4700   58.7580   18.6550 C   0  0  0  0  0  0  0  0  0  0  0  0
   15.7970   58.5600   18.9340 C   0  0  0  0  0  0  0  0  0  0  0  0
   18.6434   55.9351   19.3979 H   0  0  0  0  0  0  0  0  0  0  0  0
   17.7998   55.6238   17.8429 H   0  0  0  0  0  0  0  0  0  0  0  0
   19.5131   56.1634   17.8429 H   0  0  0  0  0  0  0  0  0  0  0  0
   18.3093   58.1889   19.2782 H   0  0  0  0  0  0  0  0  0  0  0  0
   18.6142   58.2051   17.4754 H   0  0  0  0  0  0  0  0  0  0  0  0
   16.6755   56.8698   16.1438 H   0  0  0  0  0  0  0  0  0  0  0  0
   14.2892   57.2288   15.6469 H   0  0  0  0  0  0  0  0  0  0  0  0
   12.8668   58.4440   17.2555 H   0  0  0  0  0  0  0  0  0  0  0  0
   13.8328   59.2973   19.3713 H   0  0  0  0  0  0  0  0  0  0  0  0
   16.2197   58.9390   19.8762 H   0  0  0  0  0  0  0  0  0  0  0  0
  1  2  1  0
  2  3  2  0
  2  4  1  0
  4  5  1  0
  5  6  2  0
  6  7  1  0
  7  8  2  0
  8  9  1  0
  8 10  1  0
 10 11  1  0
 11 12  1  0
 12 13  2  0
 13 14  1  0
 14 15  2  0
 15 16  1  0
 16 17  1  0
 17 18  2  0
 18 19  1  0
 19 20  2  0
 20 21  1  0
 21 22  2  0
 16 23  2  0
 10 24  2  0
 24  5  1  0
 23 12  1  0
 22 17  1  0
  1 25  1  0
  1 26  1  0
  1 27  1  0
  4 28  1  0
  6 29  1  0
  7 30  1  0
  9 31  1  0
  9 32  1  0
  9 33  1  0
 11 34  1  0
 14 35  1  0
 15 36  1  0
 18 37  1  0
 19 38  1  0
 20 39  1  0
 22 40  1  0
 24 41  1  0
 42 43  1  0
 43 44  1  0
 44 45  2  0
 45 46  1  0
 46 47  2  0
 47 48  1  0
 48 49  2  0
 49 44  1  0
 42 50  1  0
 42 51  1  0
 42 52  1  0
 43 53  1  0
 43 54  1  0
 45 55  1  0
 46 56  1  0
 47 57  1  0
 48 58  1  0
 49 59  1  0
M  END
>  <meeko>  (9) 
{"is_sidechain": [false, true], "free_energy": -7.801, "intermolecular_energy": -8.994, "internal_energy": -3.871}

$$$$
