
     RDKit          3D

 41 43  0  0  0  0  0  0  0  0999 V2000
    1.4562   -3.2979   -1.7912 C   0  0  0  0  0  0  0  0  0  0  0  0
    2.1351   -2.0601   -1.2706 C   0  0  0  0  0  0  0  0  0  0  0  0
    3.5356   -2.0267   -1.1808 C   0  0  0  0  0  0  0  0  0  0  0  0
    4.1904   -0.8901   -0.7037 C   0  0  0  0  0  0  0  0  0  0  0  0
    3.4561    0.2385   -0.3076 C   0  0  0  0  0  0  0  0  0  0  0  0
    2.0602    0.2224   -0.4306 C   0  0  0  0  0  0  0  0  0  0  0  0
    1.3872   -0.9226   -0.8926 C   0  0  0  0  0  0  0  0  0  0  0  0
   -0.0450   -0.9103   -1.0324 N   0  0  0  0  0  0  0  0  0  0  0  0
   -0.9337   -0.3624   -0.0489 C   0  0  0  0  0  0  0  0  0  0  0  0
   -0.4780   -0.0133    1.1843 N   0  0  0  0  0  0  0  0  0  0  0  0
   -1.3200    0.4800    2.1269 C   0  0  0  0  0  0  0  0  0  0  0  0
   -2.6760    0.6303    1.8414 C   0  0  0  0  0  0  0  0  0  0  0  0
   -3.1424    0.2659    0.5680 C   0  0  0  0  0  0  0  0  0  0  0  0
   -2.2554   -0.2306   -0.3386 N   0  0  0  0  0  0  0  0  0  0  0  0
   -4.5751    0.3866    0.1931 C   0  0  0  0  0  0  0  0  0  0  0  0
   -5.4181    1.3454    0.7853 C   0  0  0  0  0  0  0  0  0  0  0  0
   -6.7574    1.4359    0.4025 C   0  0  0  0  0  0  0  0  0  0  0  0
   -7.2499    0.5722   -0.5753 C   0  0  0  0  0  0  0  0  0  0  0  0
   -6.4274   -0.3435   -1.1498 N   0  0  0  0  0  0  0  0  0  0  0  0
   -5.1188   -0.4525   -0.7965 C   0  0  0  0  0  0  0  0  0  0  0  0
    4.1092    1.4345    0.1525 N   0  0  0  0  0  0  0  0  0  0  0  0
    5.3213    1.4447    0.9222 C   0  0  0  0  0  0  0  0  0  0  0  0
    5.7588    0.3857    1.4478 O   0  0  0  0  0  0  0  0  0  0  0  0
    6.0218    2.7372    1.1881 C   0  0  0  0  0  0  0  0  0  0  0  0
    0.6038   -3.5715   -1.1340 H   0  0  0  0  0  0  0  0  0  0  0  0
    2.1530   -4.1627   -1.8183 H   0  0  0  0  0  0  0  0  0  0  0  0
    1.0833   -3.1127   -2.8202 H   0  0  0  0  0  0  0  0  0  0  0  0
    4.1261   -2.8816   -1.4865 H   0  0  0  0  0  0  0  0  0  0  0  0
    5.2717   -0.8852   -0.6763 H   0  0  0  0  0  0  0  0  0  0  0  0
    1.4982    1.1124   -0.1767 H   0  0  0  0  0  0  0  0  0  0  0  0
   -0.4720   -1.3710   -1.8674 H   0  0  0  0  0  0  0  0  0  0  0  0
   -0.9373    0.7473    3.1028 H   0  0  0  0  0  0  0  0  0  0  0  0
   -3.3414    0.9967    2.6113 H   0  0  0  0  0  0  0  0  0  0  0  0
   -5.0442    2.0415    1.5239 H   0  0  0  0  0  0  0  0  0  0  0  0
   -7.4065    2.1742    0.8553 H   0  0  0  0  0  0  0  0  0  0  0  0
   -8.2857    0.6326   -0.8816 H   0  0  0  0  0  0  0  0  0  0  0  0
   -4.5078   -1.2030   -1.2812 H   0  0  0  0  0  0  0  0  0  0  0  0
    3.6306    2.3497   -0.0092 H   0  0  0  0  0  0  0  0  0  0  0  0
    5.5203    3.2634    2.0266 H   0  0  0  0  0  0  0  0  0  0  0  0
    7.0839    2.5532    1.4558 H   0  0  0  0  0  0  0  0  0  0  0  0
    5.9895    3.3782    0.2823 H   0  0  0  0  0  0  0  0  0  0  0  0
  1  2  1  0
  2  3  2  0
  3  4  1  0
  4  5  2  0
  5  6  1  0
  6  7  2  0
  7  8  1  0
  8  9  1  0
  9 10  2  0
 10 11  1  0
 11 12  2  0
 12 13  1  0
 13 14  2  0
 13 15  1  0
 15 16  2  0
 16 17  1  0
 17 18  2  0
 18 19  1  0
 19 20  2  0
  5 21  1  0
 21 22  1  0
 22 23  2  0
 22 24  1  0
  7  2  1  0
 14  9  1  0
 20 15  1  0
  1 25  1  0
  1 26  1  0
  1 27  1  0
  3 28  1  0
  4 29  1  0
  6 30  1  0
  8 31  1  0
 11 32  1  0
 12 33  1  0
 16 34  1  0
 17 35  1  0
 18 36  1  0
 20 37  1  0
 21 38  1  0
 24 39  1  0
 24 40  1  0
 24 41  1  0
M  END
>  <ScrubInfo>  (1) 
{"isomerGroup": 0, "isomerId": 0, "confId": 0, "nr_conformers:": 1, "nr_isomers:": 1}

$$$$
